                                  MODFLOW-ADJOINT Version 0.96 07/14/2007
      U.S. GEOLOGICAL SURVEY MODULAR FINITE-DIFFERENCE GROUND-WATER FLOW MODEL
                             VERSION 1.11 08/08/2013

 LIST FILE: example_strong_adj.lst
                         UNIT  701

 OPENING example_strong.hds
 FILE TYPE:DATA(BINARY)   UNIT  702   STATUS:UNKNOWN
 FORMAT:UNFORMATTED            ACCESS:SEQUENTIAL          

 OPENING example_strong.flw
 FILE TYPE:DATA(BINARY)   UNIT  740   STATUS:UNKNOWN
 FORMAT:UNFORMATTED            ACCESS:SEQUENTIAL          

 OPENING example_strong.hbs
 FILE TYPE:DATA   UNIT  714   STATUS:UNKNOWN
 FORMAT:FORMATTED              ACCESS:SEQUENTIAL          

 OPENING example_strong.sen
 FILE TYPE:DATA   UNIT   48   STATUS:UNKNOWN
 FORMAT:FORMATTED              ACCESS:SEQUENTIAL          

 OPENING example_strong_adj.pcg
 FILE TYPE:DATA   UNIT   75   STATUS:UNKNOWN
 FORMAT:FORMATTED              ACCESS:SEQUENTIAL          
# Input Files                                                                                                                                                                                                                                                                                               

 OPENING example_strong.dis
 FILE TYPE:DIS   UNIT  707   STATUS:OLD    
 FORMAT:FORMATTED              ACCESS:SEQUENTIAL          

 OPENING example_strong.ba6
 FILE TYPE:BAS6   UNIT  708   STATUS:OLD    
 FORMAT:FORMATTED              ACCESS:SEQUENTIAL          

 OPENING example_strong.lpf
 FILE TYPE:LPF   UNIT  709   STATUS:OLD    
 FORMAT:FORMATTED              ACCESS:SEQUENTIAL          

 OPENING example_strong.zon
 FILE TYPE:ZONE   UNIT  720   STATUS:OLD    
 FORMAT:FORMATTED              ACCESS:SEQUENTIAL          

 OPENING example_strong.oc
 FILE TYPE:OC   UNIT  710   STATUS:OLD    
 FORMAT:FORMATTED              ACCESS:SEQUENTIAL          

 OPENING example_strong.mlt
 FILE TYPE:MULT   UNIT  722   STATUS:OLD    
 FORMAT:FORMATTED              ACCESS:SEQUENTIAL          

 OPENING example_strong.rch
 FILE TYPE:RCH   UNIT  713   STATUS:OLD    
 FORMAT:FORMATTED              ACCESS:SEQUENTIAL          

 OPENING example_strong.wel
 FILE TYPE:WEL   UNIT  712   STATUS:OLD    
 FORMAT:FORMATTED              ACCESS:SEQUENTIAL          

 OPENING example_strong.pcg
 FILE TYPE:PCG   UNIT  711   STATUS:OLD    
 FORMAT:FORMATTED              ACCESS:SEQUENTIAL          

 OPENING example_strong.hob
 FILE TYPE:HOB   UNIT  703   STATUS:OLD    
 FORMAT:FORMATTED              ACCESS:SEQUENTIAL          

 OPENING example_strong.adj
 FILE TYPE:ADJ   UNIT   35   STATUS:OLD    
 FORMAT:FORMATTED              ACCESS:SEQUENTIAL          

 BAS -- BASIC PACKAGE, VERSION 7, 5/2/2005 INPUT READ FROM UNIT  708
 
 MODFLOW was compiled using mixed precision
 Precision of REAL variables:           6
 Precision of DOUBLE PRECISION variables:          15

 DISCRETIZATION INPUT DATA READ FROM UNIT  707
 # MF2K DISCRETIZATION FILE
 #
 #
 # NLAY NROW NCOL NPER TIMEUNITS LENUNITS
    1 LAYERS        50 ROWS        50 COLUMNS
    1 STRESS PERIOD(S) IN SIMULATION
 MODEL TIME UNIT IS DAYS
 MODEL LENGTH UNIT IS METERS
  Confining bed flag for each layer:
   0



                               DELR
 READING ON UNIT  707 WITH FORMAT: (FREE)              



                               DELC
 READING ON UNIT  707 WITH FORMAT: (FREE)              



           TOP ELEVATION OF LAYER 1
 READING ON UNIT  707 WITH FORMAT: (FREE)              



             MODEL LAYER BOTTOM EL. FOR LAYER   1
 READING ON UNIT  707 WITH FORMAT: (FREE)              


 STRESS PERIOD     LENGTH       TIME STEPS     MULTIPLIER FOR DELT    SS FLAG
 ----------------------------------------------------------------------------
        1         1.000000          1                    1.000         SS

 STEADY-STATE SIMULATION



 
 #Example                                                                        
 THE FREE FORMAT OPTION HAS BEEN SELECTED



                     BOUNDARY ARRAY FOR LAYER   1
 READING ON UNIT  708 WITH FORMAT: (FREE)              

 AQUIFER HEAD WILL BE SET TO  -999.00     AT ALL NO-FLOW NODES (IBOUND=0).



                       INITIAL HEAD FOR LAYER   1
 READING ON UNIT  708 WITH FORMAT: (FREE)              

 OUTPUT CONTROL IS SPECIFIED ONLY AT TIME STEPS FOR WHICH OUTPUT IS DESIRED
 COMPACT CELL-BY-CELL BUDGET FILES WILL BE WRITTEN
 AUXILIARY DATA WILL BE SAVED IN CELL-BY-CELL BUDGET FILES
 HEAD PRINT FORMAT CODE IS   0    DRAWDOWN PRINT FORMAT CODE IS   0
 HEADS WILL BE SAVED ON UNIT  702    DRAWDOWNS WILL BE SAVED ON UNIT    0

 ZONE OPTION, INPUT READ FROM UNIT  720
 # Zone (ZONE) File
     1 ZONE ARRAYS

 MULTIPLIER OPTION, INPUT READ FROM UNIT  722
 # Multiplier (MULT)
   1 MULTIPLIER ARRAYS



            MULT. ARRAY: HK_Par    
 READING ON UNIT  722 WITH FORMAT: (FREE)              

            1           2           3           4           5           6           7           8           9          10
           11          12          13          14          15          16          17          18          19          20
           21          22          23          24          25          26          27          28          29          30
           31          32          33          34          35          36          37          38          39          40
           41          42          43          44          45          46          47          48          49          50
 ........................................................................................................................
   1    105.6       113.4       113.8       107.1       96.54       85.73       76.84       70.40       66.18       63.55    
        61.66       59.68       57.09       54.02       51.17       49.44       49.48       51.44       55.08       59.86    
        65.14       70.31       74.80       78.03       79.44       78.80       76.30       72.48       68.01       63.52    
        59.52       56.49       54.76       54.50       55.62       57.84       60.69       63.74       66.77       69.77    
        72.97       76.73       81.38       87.10       93.78       100.8       106.7       109.2       107.0       100.1    
   2    124.1       138.0       137.5       123.2       102.9       84.65       71.81       64.15       60.22       58.45    
        57.43       55.91       53.14       49.27       45.39       42.85       42.49       44.54       48.66       54.24    
        60.57       67.05       73.02       77.56       79.62       78.66       75.03       69.78       64.00       58.45    
        53.70       50.21       48.33       48.24       49.85       52.76       56.38       60.09       63.59       66.92    
        70.44       74.82       80.92       89.44       100.4       112.5       122.8       127.2       123.1       111.5    
   3    157.0       185.2       185.3       155.4       114.9       83.17       64.65       56.35       54.09       54.58    
        55.74       55.80       53.45       48.68       43.23       39.31       38.21       40.13       44.50       50.47    
        57.34       64.65       71.78       77.53       80.30       79.09       74.39       67.80       60.96       54.76    
        49.65       45.98       44.18       44.51       46.86       50.67       55.04       59.16       62.63       65.58    
        68.54       72.58       79.66       91.75       109.4       130.1       147.2       153.2       145.1       126.1    
   4    220.1       288.3       293.4       225.0       140.7       84.86       57.69       47.72       47.27       51.27    
        56.04       59.07       57.67       51.61       43.88       38.04       35.82       37.30       41.74       47.88    
        54.76       62.20       69.74       76.16       79.52       78.32       73.10       65.80       58.34       51.88    
        46.68       43.09       41.65       42.70       46.10       51.10       56.41       60.78       63.71       65.47    
        66.72       69.63       77.72       94.46       121.7       156.2       185.3       193.3       176.5       145.1    
   5    330.0       489.7       510.1       360.1       186.5       90.00       52.11       40.34       40.76       47.95    
        57.12       63.99       64.14       56.84       46.30       38.14       34.77       35.74       39.94       45.85    
        52.12       58.61       65.29       71.46       75.19       74.25       69.36       62.50       55.40       49.19    
        44.26       41.07       40.23       42.18       46.92       53.43       59.76       64.26       66.27       66.13    
        65.08       66.62       75.34       96.74       136.5       190.5       236.4       246.9       216.7       167.3    
   6    466.8       768.2       830.3       564.5       249.4       94.60       47.40       34.92       35.79       44.71    
        57.36       67.69       70.01       62.41       49.21       38.77       34.70       35.38       39.16       44.30    
        49.23       53.72       58.34       63.07       66.73       66.28       62.71       57.46       51.75       46.44    
        42.19       39.63       39.49       42.37       48.63       56.86       64.09       68.55       69.59       67.50    
        64.34       64.39       72.60       96.68       149.5       225.2       287.2       298.3       254.2       186.9    
   7    527.1       903.2       1004.       697.6       292.8       91.40       43.86       31.92       32.95       42.16    
        55.88       67.70       71.83       65.77       51.68       40.02       36.23       36.85       40.05       43.97    
        46.93       48.91       50.81       52.96       55.21       56.09       54.70       51.73       47.96       44.04    
        40.77       39.01       39.58       43.24       51.05       60.66       68.34       72.81       73.37       70.17    
        65.62       64.26       70.82       92.92       152.2       239.1       305.0       315.9       267.3       193.6    
   8    439.8       715.3       772.5       527.7       234.3       88.16       43.48       31.63       32.32       40.60    
        52.70       63.37       67.54       63.00       52.73       44.02       40.55       40.93       43.30       45.61    
        46.32       45.92       45.51       45.58       46.15       47.65       47.98       46.95       44.96       42.50    
        40.30       39.39       40.75       45.25       53.33       63.01       71.35       76.48       77.59       74.76    
        69.93       67.64       72.82       92.31       137.5       206.9       266.9       281.8       244.2       182.2    
   9    299.6       435.1       450.7       318.5       164.4       77.78       43.67       33.00       33.18       39.62    
        48.59       56.90       60.95       59.35       54.15       49.39       47.39       47.81       49.15       49.53    
        48.01       45.58       43.48       42.27       42.16       43.13       43.96       44.04       43.30       41.98    
        40.71       40.51       42.41       47.21       55.05       64.57       73.47       79.79       82.50       81.51    
        77.57       74.57       77.51       91.20       120.7       165.0       206.7       221.4       200.2       158.9    
  10    199.1       253.9       254.7       192.9       117.8       68.10       43.98       35.04       34.51       38.49    
        44.42       50.67       55.22       57.01       56.82       56.31       56.57       57.33       57.36       55.51    
        51.96       47.87       44.41       42.20       41.39       41.75       42.51       43.03       42.95       42.31    
        41.68       41.91       44.00       48.75       56.34       65.90       75.64       83.68       88.78       90.42    
        88.33       84.78       84.38       90.92       106.7       130.7       154.6       165.5       156.9       134.0    
  11    147.3       169.9       166.1       134.3       93.70       62.57       44.72       36.78       34.96       36.75    
        40.78       45.99       51.54       56.75       61.35       65.25       68.06       68.98       67.20       62.95    
        57.47       51.91       47.21       43.98       42.37       42.15       42.70       43.33       43.52       43.20    
        42.81       43.12       45.12       49.78       57.54       67.89       79.32       89.88       97.94       102.2    
        102.0       98.16       93.87       92.86       97.20       106.8       118.1       125.4       123.9       113.3    
  12    126.1       139.8       135.5       113.5       84.86       60.70       45.01       36.77       33.83       34.52    
        37.82       43.12       50.24       58.98       68.47       76.81       81.68       81.85       77.75       71.00    
        63.38       56.16       50.09       45.72       43.33       42.73       43.32       44.19       44.64       44.42    
        43.86       43.81       45.61       50.60       59.63       72.44       87.30       101.6       113.0       119.7    
        120.5       115.6       107.1       98.35       92.47       91.32       94.34       98.67       100.4       97.15    
  13    121.6       135.3       133.4       113.2       84.60       59.65       43.38       34.82       31.64       32.12    
        35.40       41.37       50.50       63.14       78.01       91.04       97.39       95.55       88.12       78.42    
        68.46       59.30       51.75       46.39       43.46       42.79       43.74       45.28       46.25       45.96    
        44.77       43.90       45.55       51.99       64.78       83.62       105.1       124.7       139.7       148.5    
        150.0       143.5       129.6       110.8       93.00       81.32       77.16       78.80       82.41       84.36    
  14    127.2       146.2       146.5       122.6       87.51       58.07       40.22       31.61       28.91       29.86    
        33.42       40.00       50.78       66.91       87.16       105.1       112.9       108.4       96.72       83.82    
        71.91       61.49       53.20       47.38       44.24       43.75       45.15       47.28       48.67       48.04    
        45.58       43.72       45.93       55.48       75.48       106.3       141.3       169.7       187.6       197.5    
        201.0       194.5       171.8       135.7       99.83       75.51       64.23       62.90       67.62       73.77    
  15    137.9       164.5       166.3       135.4       90.23       55.13       36.29       28.26       26.37       28.04    
        31.93       38.55       49.62       67.31       91.28       112.7       121.2       115.2       100.9       86.21    
        73.99       64.23       56.72       51.25       48.13       47.98       49.61       51.68       52.71       51.06    
        46.96       44.33       47.50       61.36       92.90       144.4       201.7       243.7       263.3       272.8    
        281.1       277.4       241.6       177.6       113.6       73.11       55.22       51.42       56.19       65.15    
  16    146.8       179.0       181.7       144.5       89.98       50.47       32.34       25.63       24.76       27.11    
        31.16       37.06       46.59       62.55       86.75       108.2       116.8       111.4       98.48       85.38    
        75.66       69.11       64.60       61.11       58.22       58.27       59.11       59.87       59.29       55.70    
        49.86       46.43       50.15       68.12       114.9       194.1       276.3       329.9       348.7       357.0    
        373.2       376.5       330.4       234.4       132.8       72.56       49.59       44.46       49.00       59.23    
  17    146.0       176.8       177.6       139.9       83.66       44.57       29.44       24.43       24.61       27.61    
        31.59       36.30       43.14       54.22       73.05       92.28       100.8       98.74       90.51       82.20    
        77.54       76.64       78.12       80.24       80.51       77.58       74.82       72.15       68.58       62.44    
        54.87       50.45       53.86       72.71       131.9       227.4       315.7       369.8       386.7       395.3    
        418.5       430.3       385.6       278.1       149.9       72.07       47.67       42.11       46.38       56.85    
  18    133.4       154.6       149.4       114.3       70.37       41.43       28.84       25.10       26.20       29.83    
        33.72       37.39       42.03       49.19       59.99       73.73       82.42       83.90       80.94       78.27    
        79.51       85.44       94.72       104.4       109.1       102.8       94.37       86.64       79.35       70.93    
        61.94       56.50       59.30       77.25       123.7       198.5       273.1       321.2       339.5       351.4    
        374.3       386.5       347.0       250.8       143.2       76.73       50.98       44.55       48.33       58.22    
  19    114.9       124.8       115.9       89.22       59.45       39.40       29.94       27.50       29.48       33.69    
        37.66       40.77       44.04       48.67       55.43       63.83       70.23       72.84       73.26       74.91    
        81.00       92.92       109.0       124.2       130.6       123.8       111.4       99.41       89.17       79.70    
        70.06       63.51       64.29       76.65       105.6       150.3       197.5       231.8       250.0       264.0    
        280.9       288.5       261.3       197.4       126.8       79.31       57.24       51.04       54.36       62.83    
  20    97.76       99.19       89.82       71.35       52.15       38.82       32.36       31.30       33.99       38.53    
        42.96       46.32       49.21       52.60       56.92       61.60       65.00       66.67       68.28       72.39    
        81.55       97.16       117.1       134.6       141.3       134.5       120.9       107.2       96.02       86.76    
        77.64       70.27       68.18       73.97       89.04       112.1       137.4       158.5       174.2       187.5    
        198.2       201.2       186.0       151.1       111.1       81.13       65.36       60.84       63.63       69.59    
  21    85.07       81.61       72.80       60.29       48.17       39.72       35.82       35.90       38.86       43.44    
        48.51       53.07       56.88       60.20       62.87       64.24       63.98       63.27       64.46       69.81    
        81.03       98.46       119.2       136.2       141.8       135.3       122.5       109.7       99.40       90.88    
        82.89       75.72       71.45       72.09       78.25       88.95       101.8       114.9       127.3       137.9    
        144.7       145.2       136.9       120.0       99.96       83.99       75.25       73.08       74.75       77.43    
  22    76.46       70.77       62.83       54.11       46.61       41.66       39.65       40.37       43.27       47.75    
        53.26       59.30       65.17       69.58       70.79       68.02       62.91       58.88       59.15       65.76    
        79.49       99.02       119.6       134.0       137.2       130.6       119.4       108.6       99.61       92.01    
        85.03       78.67       73.91       71.91       73.22       77.66       84.42       92.53       100.9       108.3    
        112.7       112.9       108.5       101.4       94.01       88.83       86.57       86.40       86.65       85.92    
  23    70.37       63.58       56.67       50.68       46.35       43.92       43.33       44.42       47.05       51.15    
        56.79       64.12       72.10       77.39       75.94       67.43       56.77       50.18       51.06       60.72    
        79.07       102.3       122.7       133.4       132.3       123.9       113.5       104.3       96.86       90.46    
        84.62       79.29       74.94       72.27       71.67       73.16       76.34       80.66       85.39       89.47    
        91.64       91.38       90.00       89.72       91.85       95.98       100.0       101.6       99.83       95.01    
  24    65.71       58.27       52.30       48.43       46.61       46.32       46.95       48.23       50.30       53.65    
        59.10       67.21       75.91       79.86       73.73       58.98       45.22       39.18       42.63       57.18    
        83.17       113.3       133.4       136.6       128.2       116.1       105.1       97.01       91.27       86.51    
        82.06       77.98       74.52       72.09       70.90       70.87       71.77       73.25       74.83       75.78    
        75.21       73.97       74.77       80.07       90.87       105.1       116.9       120.2       114.7       104.4    
  25    62.07       54.28       49.12       46.92       47.23       48.89       50.60       51.92       53.22       55.54    
        60.34       67.91       75.20       76.03       65.05       46.83       33.89       30.21       36.81       58.04    
        95.92       135.2       152.4       143.1       123.9       106.7       94.83       87.59       83.46       80.52    
        77.62       74.79       72.30       70.42       69.25       68.47       67.91       67.38       66.47       64.57    
        61.45       59.22       61.04       69.97       88.42       113.4       133.9       139.3       129.3       112.6    
  26    59.43       51.51       46.99       46.08       48.28       51.74       54.33       55.55       56.04       57.24    
        60.84       66.63       71.24       68.75       55.02       36.85       26.64       25.51       35.65       66.98    
        122.5       168.5       175.3       149.6       117.9       95.98       83.63       77.34       74.55       73.11    
        71.61       69.85       68.15       66.81       65.94       64.91       63.63       61.90       59.35       55.36    
        50.48       47.28       48.73       58.53       82.06       115.7       142.7       149.7       137.1       116.6    
  27    57.86       50.02       46.04       46.06       49.85       54.82       58.00       59.15       59.03       59.25    
        61.42       65.08       67.00       62.31       47.78       32.26       25.31       26.89       41.55       91.28    
        162.6       200.9       188.8       148.5       109.1       84.55       72.85       67.50       65.62       65.14    
        64.58       63.60       62.47       61.44       60.75       60.05       58.79       56.73       53.46       48.44    
        42.60       38.56       38.83       46.55       70.13       105.0       132.4       141.4       131.4       113.0    
  28    57.29       49.71       46.38       47.34       51.84       57.41       61.30       62.71       62.41       62.05    
        63.09       65.17       65.44       60.15       48.13       36.72       32.27       37.84       61.18       117.8    
        182.8       205.9       178.7       132.8       96.21       74.63       63.75       58.91       57.43       57.35    
        57.28       56.85       56.20       55.50       54.95       54.72       54.00       52.27       49.06       43.93    
        37.78       33.15       32.33       37.75       53.31       78.43       102.6       115.0       112.6       102.3    
  29    57.33       50.13       47.40       49.05       54.05       60.09       64.58       66.48       66.41       65.98    
        66.48       67.83       68.03       64.57       56.96       49.31       48.06       58.46       87.83       139.2    
        184.5       188.7       155.1       113.4       83.63       65.97       56.32       51.78       50.30       50.24    
        50.42       50.45       50.32       50.15       50.12       50.26       50.06       48.92       46.24       41.61    
        35.58       30.42       28.29       30.72       39.29       54.18       71.35       84.22       89.00       88.12    
  30    57.45       50.64       48.44       50.75       56.40       63.11       68.29       70.81       71.28       71.15    
        71.59       72.86       74.02       73.47       70.87       68.35       71.32       85.61       114.9       152.8    
        175.5       165.7       132.8       98.98       74.95       59.63       50.62       46.04       44.30       44.06    
        44.43       44.90       45.31       45.70       46.16       46.71       47.03       46.59       44.73       40.93    
        35.41       29.84       26.29       26.03       29.72       37.54       48.32       59.38       68.31       74.62    
  31    57.12       50.63       49.00       52.15       58.88       66.77       72.99       76.30       77.36       77.54    
        78.02       79.44       81.65       83.86       85.77       88.79       96.03       111.1       134.0       156.4    
        163.2       147.7       119.7       92.24       70.77       55.83       46.53       41.49       39.34       38.94    
        39.50       40.40       41.26       42.01       42.74       43.55       44.34       44.68       43.89       41.26    
        36.66       31.05       26.26       23.74       24.08       27.46       33.80       42.66       53.07       63.60    
  32    56.02       49.63       48.64       53.07       61.75       71.84       79.77       83.96       85.25       85.31    
        85.57       86.91       89.52       93.14       97.64       103.6       112.6       125.8       141.5       153.6    
        154.1       140.3       117.2       92.22       70.40       54.18       43.70       37.89       35.38       34.98    
        35.76       36.97       38.06       38.79       39.32       40.01       41.06       42.24       42.87       41.97    
        38.82       33.71       28.10       23.64       21.39       21.80       25.26       32.14       42.41       55.03    
  33    54.02       47.42       47.00       53.30       65.47       79.84       90.70       95.42       95.95       95.11    
        94.63       95.44       97.69       101.0       105.2       110.8       118.6       129.0       140.4       148.9    
        149.6       140.1       121.1       96.57       72.58       53.83       41.69       35.13       32.45       32.22    
        33.30       34.75       35.75       35.88       35.48       35.41       36.35       38.40       40.82       42.34    
        41.66       38.05       32.11       25.69       20.84       18.77       20.03       25.19       34.79       48.40    
  34    51.12       44.05       44.27       52.81       69.78       90.90       107.0       112.7       110.9       107.7    
        106.0       105.9       106.9       108.2       109.8       112.5       117.4       125.0       134.2       142.2    
        145.6       141.4       126.3       101.8       75.25       53.76       40.13       33.10       30.54       30.72    
        32.30       34.02       34.63       33.58       31.63       30.33       30.71       33.20       37.39       41.88    
        44.90       44.35       38.70       29.80       21.78       17.24       16.70       20.40       29.21       43.37    
  35    48.07       40.53       41.01       51.31       73.58       103.2       126.4       133.9       129.3       122.8    
        119.3       118.0       116.9       114.9       112.3       110.6       111.9       117.0       124.8       133.2    
        139.6       139.7       127.9       104.4       76.27       52.88       38.66       31.80       29.71       30.58    
        32.89       34.98       35.14       32.67       28.80       26.09       25.71       28.13       33.36       40.53    
        47.79       51.37       46.74       35.27       23.57       16.52       14.62       17.32       25.43       39.81    
  36    46.17       38.03       37.99       48.57       75.25       112.7       142.2       151.9       146.0       136.9    
        131.9       129.2       126.0       120.4       112.7       106.1       104.4       107.6       114.3       122.7    
        130.4       132.4       123.2       101.7       74.17       50.59       37.28       31.36       30.09       31.81    
        35.01       37.65       37.60       33.84       27.75       23.53       22.39       24.50       29.95       38.58    
        48.89       55.99       53.15       40.26       25.29       16.06       13.45       15.75       23.49       37.92    
  37    46.62       37.83       36.61       45.17       72.47       112.8       143.8       156.1       152.3       144.0    
        139.1       135.9       131.1       122.8       110.5       100.3       97.18       99.16       104.8       112.2    
        118.9       120.4       112.0       92.98       67.88       47.33       36.63       32.14       31.79       34.32    
        38.30       41.53       41.62       37.31       29.28       23.15       21.30       22.87       27.84       36.23    
        46.83       54.77       53.27       41.44       25.68       15.61       13.26       15.70       23.51       38.02    
  38    50.29       41.10       38.85       45.58       65.47       97.34       126.6       142.1       143.8       140.2    
        137.7       135.0       129.3       119.4       106.6       96.67       92.52       93.37       97.65       103.3    
        107.6       107.1       98.29       81.32       61.30       46.34       37.89       34.56       34.90       37.80    
        42.01       45.48       45.65       41.03       32.91       25.80       22.61       23.10       26.87       33.49    
        41.63       47.43       45.72       36.04       24.04       16.52       14.63       17.43       25.65       40.22    
  39    57.34       48.08       44.38       48.02       60.69       81.62       103.7       119.2       125.8       127.9    
        128.8       127.7       122.9       114.0       103.3       94.63       90.38       90.37       93.25       96.79    
        98.62       96.39       88.01       74.26       59.34       47.91       41.23       38.69       39.27       41.78    
        45.22       48.08       47.86       43.19       35.49       28.49       24.58       24.00       26.25       30.42    
        35.18       38.17       36.50       30.22       22.87       18.22       17.52       21.15       30.02       44.35    
  40    67.25       58.68       53.00       52.64       58.62       70.36       84.72       97.57       106.8       113.0    
        116.7       117.5       114.6       108.2       100.2       93.49       89.79       89.33       90.94       92.69    
        92.84       89.80       82.54       71.87       60.65       51.76       46.36       44.23       44.41       45.74    
        47.48       48.65       47.39       42.69       35.86       29.60       25.70       24.50       25.46       27.60    
        29.87       31.10       30.12       26.98       23.39       21.41       22.36       27.18       36.57       49.91    
  41    79.37       72.98       65.28       60.10       59.57       63.94       72.02       81.93       91.78       99.93    
        105.4       107.7       106.7       102.8       97.37       92.52       89.64       88.97       89.62       90.32    
        89.80       86.85       80.96       72.79       64.21       57.18       52.63       50.40       49.60       49.33    
        48.91       47.60       44.58       39.63       33.82       28.83       25.70       24.57       24.95       26.14    
        27.38       28.12       28.08       27.35       26.66       27.15       29.95       35.88       45.02       56.47    
  42    96.19       94.10       84.79       73.40       65.14       62.39       65.17       72.23       81.40       90.17    
        96.74       100.3       100.6       98.30       94.52       90.92       88.66       88.00       88.38       88.88    
        88.48       86.28       81.81       75.53       68.77       62.95       58.77       56.09       54.24       52.39    
        49.73       45.81       40.77       35.45       30.79       27.50       25.79       25.48       26.21       27.47    
        28.83       30.05       31.13       32.31       34.00       36.73       41.06       47.29       55.19       64.00    
  43    129.7       139.7       130.5       107.1       82.98       67.70       62.63       66.02       74.51       83.85    
        91.53       96.25       97.56       95.68       91.92       88.23       86.10       85.85       86.74       87.76    
        88.06       86.89       83.76       78.82       73.07       67.79       63.74       60.81       58.20       54.85    
        49.97       43.60       37.19       32.28       29.41       28.42       28.77       29.99       31.78       33.84    
        35.98       38.21       40.67       43.61       47.19       51.48       56.49       61.99       67.56       72.78    
  44    212.3       271.4       271.8       207.9       133.7       87.05       66.50       62.77       69.64       80.66    
        90.20       96.49       98.29       95.63       90.34       85.30       82.54       82.56       84.44       86.66    
        88.16       88.25       86.22       82.05       76.69       71.57       67.58       64.55       61.39       56.68    
        49.58       41.52       35.21       32.02       32.15       35.02       39.19       43.20       46.57       49.64    
        52.74       56.02       59.69       63.86       68.45       73.18       77.53       80.88       82.76       83.18    
  45    415.2       660.8       721.5       519.6       269.3       131.9       79.47       64.73       68.00       80.45    
        92.82       101.0       103.0       98.63       90.46       82.96       79.05       79.03       81.80       85.48    
        88.47       89.85       88.76       85.07       79.73       74.47       70.52       67.48       63.93       58.02    
        49.31       40.93       35.99       35.89       41.57       52.74       65.33       74.97       80.17       83.14    
        85.95       89.06       92.48       96.16       99.82       103.1       105.0       104.6       101.2       95.39    
  46    811.5       1582.       1914.       1374.       592.0       211.1       101.5       72.58       71.49       84.02    
        99.08       108.9       110.9       104.6       92.40       81.59       76.42       76.27       79.58       84.37    
        88.63       91.08       90.84       87.60       82.07       76.56       72.77       69.90       66.16       59.47    
        50.28       42.67       39.97       44.91       61.78       91.54       121.2       140.0       145.2       143.6    
        141.9       141.3       141.0       140.9       140.6       140.0       137.9       132.3       122.2       108.8    
  47    1166.       2547.       3361.       2609.       1089.       292.6       128.6       86.15       80.48       91.78    
        107.4       117.2       118.8       111.2       95.47       81.34       75.46       75.07       78.41       83.55    
        88.34       91.29       91.63       88.99       83.44       77.93       74.65       72.11       68.47       61.75    
        53.13       47.05       47.38       59.04       97.03       156.2       207.5       234.8       235.1       222.8    
        211.5       202.8       195.1       188.2       181.9       176.4       169.8       158.8       141.9       121.1    
  48    967.0       2044.       2702.       2134.       987.8       345.8       156.8       103.2       92.96       101.4    
        113.7       120.9       120.6       111.6       96.77       83.45       76.74       75.70       78.50       83.10    
        87.42       90.14       90.46       88.08       83.65       79.36       76.53       74.33       71.10       65.20    
        57.94       53.91       57.98       77.40       125.9       198.4       264.7       297.0       292.9       273.5    
        255.6       240.4       226.7       214.5       204.3       195.9       186.8       172.9       152.5       127.6    
  49    521.9       944.2       1198.       1008.       584.1       289.0       160.7       114.1       103.2       107.7    
        114.1       117.5       115.5       107.3       95.45       84.81       78.76       77.40       79.43       82.87    
        86.05       88.07       88.23       86.39       83.29       80.30       78.20       76.50       73.97       69.47    
        63.92       61.71       67.88       88.70       131.5       191.8       246.6       273.0       269.9       255.8    
        241.5       227.9       214.9       203.4       194.0       186.6       178.6       166.4       148.0       125.0    
  50    252.1       367.3       437.1       400.7       294.3       197.4       139.2       112.7       105.5       106.1    
        107.5       108.0       105.7       99.94       92.00       84.75       80.36       79.26       80.50       82.60    
        84.52       85.74       85.80       84.60       82.66       80.83       79.53       78.44       76.70       73.69    
        70.04       68.91       74.46       90.53       119.1       155.1       185.6       199.9       200.0       194.8    
        187.9       180.2       172.4       165.4       159.7       155.4       150.7       143.0       130.6       114.3    



             ZONE ARRAY: HK_Par_Z1 
 READING ON UNIT  720 WITH FORMAT: (FREE)              

 LPF -- LAYER-PROPERTY FLOW PACKAGE, VERSION 7, 5/2/2005
         INPUT READ FROM UNIT  709
 # LPF: Layer Property Flow package file
 CELL-BY-CELL FLOWS WILL BE SAVED ON UNIT  740
 HEAD AT CELLS THAT CONVERT TO DRY=  -888.00    
     1 Named Parameters     

   LAYER FLAGS:
 LAYER       LAYTYP        LAYAVG         CHANI        LAYVKA        LAYWET
 ---------------------------------------------------------------------------
    1             0             0     1.000E+00             1             0

   INTERPRETATION OF LAYER FLAGS:
                        INTERBLOCK     HORIZONTAL    DATA IN
         LAYER TYPE   TRANSMISSIVITY   ANISOTROPY   ARRAY VKA   WETTABILITY
 LAYER      (LAYTYP)      (LAYAVG)       (CHANI)      (LAYVKA)      (LAYWET)
 ---------------------------------------------------------------------------
    1      CONFINED      HARMONIC     1.000E+00    ANISOTROPY  NON-WETTABLE

 WETTING CAPABILITY IS NOT ACTIVE IN ANY LAYER

 PARAMETERS DEFINED IN THE LPF PACKAGE

 PARAMETER NAME:HK_Par       TYPE:HK     CLUSTERS:   1
 Parameter value from package file is:    1.0000    
                LAYER:   1    MULTIPLIER ARRAY: HK_Par    ZONE ARRAY: HK_Par_Z1
                ZONE VALUES:    1

    HYD. COND. ALONG ROWS FOR LAYER   1 WILL BE DEFINED BY PARAMETERS
 (PRINT FLAG=  -1)

    HYD. COND. ALONG ROWS is defined by the following parameters:
 HK_Par    


              HYD. COND. ALONG ROWS FOR LAYER   1

  HORIZ. TO VERTICAL ANI. =   1.00000     FOR LAYER   1

 WEL -- WELL PACKAGE, VERSION 7, 5/2/2005 INPUT READ FROM UNIT  712
 No named parameters
 MAXIMUM OF      1 ACTIVE WELLS AT ONE TIME
 CELL-BY-CELL FLOWS WILL BE SAVED ON UNIT  740


     0 Well parameters

 RCH -- RECHARGE PACKAGE, VERSION 7, 5/2/2005 INPUT READ FROM UNIT  713
 No named parameters
 OPTION 3 -- RECHARGE TO HIGHEST ACTIVE NODE IN EACH VERTICAL COLUMN
 CELL-BY-CELL FLOWS WILL BE SAVED ON UNIT  740


     0 Recharge parameters

 PCG -- CONJUGATE-GRADIENT SOLUTION PACKAGE, VERSION 7, 5/2/2005
 MAXIMUM OF     25 CALLS OF SOLUTION ROUTINE
 MAXIMUM OF     50 INTERNAL ITERATIONS PER CALL TO SOLUTION ROUTINE
 MATRIX PRECONDITIONING TYPE :    1



                                    SOLUTION BY THE CONJUGATE-GRADIENT METHOD
                                   -------------------------------------------
                    MAXIMUM NUMBER OF CALLS TO PCG ROUTINE =       25
                        MAXIMUM ITERATIONS PER CALL TO PCG =       50
                               MATRIX PRECONDITIONING TYPE =        1
        RELAXATION FACTOR (ONLY USED WITH PRECOND. TYPE 1) =    0.10000E+01
 PARAMETER OF POLYNOMIAL PRECOND. = 2 (2) OR IS CALCULATED :        0
                         HEAD CHANGE CRITERION FOR CLOSURE =    0.10000E-03
                     RESIDUAL CHANGE CRITERION FOR CLOSURE =    0.10000E-02
            PCG HEAD AND RESIDUAL CHANGE PRINTOUT INTERVAL =      999
     PRINTING FROM SOLVER IS LIMITED(1) OR SUPPRESSED (>1) =        2
                            STEADY-STATE DAMPING PARAMETER =    0.10000E+01
                               TRANSIENT DAMPING PARAMETER =    0.10000E+01

 OBS2BAS7 -- HEAD OBSERVATIONS, VERSION 2.0, 2/28/2006
 INPUT READ FROM UNIT 703

 NUMBER OF HEADS....................................:   25
   NUMBER OF MULTILAYER HEADS.......................:    0
   MAXIMUM NUMBER OF LAYERS FOR MULTILAYER HEADS....:    0
 HEAD OBSERVATIONS WILL BE SAVED ON UNIT............:  714
 SIMULATED EQUIVALENT HEAD AT DRY CELLS WILL BE:   -777.000    

 OBSERVED HEAD DATA -- TIME OFFSETS ARE MULTIPLIED BY:   1.0000    

                    REFER.
       OBSERVATION  STRESS    TIME
  OBS#    NAME      PERIOD   OFFSET    OBSERVATION
     1 hed1             1    0.000       2.143    
 Observation within a steady-state time step has been moved to the end of the time step.
     2 hed2             1    0.000       25.92    
 Observation within a steady-state time step has been moved to the end of the time step.
     3 hed3             1    0.000       34.21    
 Observation within a steady-state time step has been moved to the end of the time step.
     4 hed4             1    0.000       27.14    
 Observation within a steady-state time step has been moved to the end of the time step.
     5 hed5             1    0.000       11.04    
 Observation within a steady-state time step has been moved to the end of the time step.
     6 hed6             1    0.000       4.520    
 Observation within a steady-state time step has been moved to the end of the time step.
     7 hed7             1    0.000       24.70    
 Observation within a steady-state time step has been moved to the end of the time step.
     8 hed8             1    0.000       26.57    
 Observation within a steady-state time step has been moved to the end of the time step.
     9 hed9             1    0.000       23.50    
 Observation within a steady-state time step has been moved to the end of the time step.
    10 hed10            1    0.000       17.59    
 Observation within a steady-state time step has been moved to the end of the time step.
    11 hed11            1    0.000       9.226    
 Observation within a steady-state time step has been moved to the end of the time step.
    12 hed12            1    0.000       17.12    
 Observation within a steady-state time step has been moved to the end of the time step.
    13 hed13            1    0.000       17.64    
 Observation within a steady-state time step has been moved to the end of the time step.
    14 hed14            1    0.000       26.29    
 Observation within a steady-state time step has been moved to the end of the time step.
    15 hed15            1    0.000       13.62    
 Observation within a steady-state time step has been moved to the end of the time step.
    16 hed16            1    0.000       10.13    
 Observation within a steady-state time step has been moved to the end of the time step.
    17 hed17            1    0.000       18.29    
 Observation within a steady-state time step has been moved to the end of the time step.
    18 hed18            1    0.000       23.90    
 Observation within a steady-state time step has been moved to the end of the time step.
    19 hed19            1    0.000       30.50    
 Observation within a steady-state time step has been moved to the end of the time step.
    20 hed20            1    0.000       21.24    
 Observation within a steady-state time step has been moved to the end of the time step.
    21 hed21            1    0.000       1.227    
 Observation within a steady-state time step has been moved to the end of the time step.
    22 hed22            1    0.000       18.32    
 Observation within a steady-state time step has been moved to the end of the time step.
    23 hed23            1    0.000       27.35    
 Observation within a steady-state time step has been moved to the end of the time step.
    24 hed24            1    0.000       24.22    
 Observation within a steady-state time step has been moved to the end of the time step.
    25 hed25            1    0.000       14.56    
 Observation within a steady-state time step has been moved to the end of the time step.

                                                     HEAD CHANGE
                                                      REFERENCE
        OBSERVATION                   ROW     COL    OBSERVATION
  OBS#     NAME       LAY  ROW  COL  OFFSET  OFFSET   (IF > 0)
     1  hed1            1    7    5   0.000   0.000        0
     2  hed2            1    7   15   0.000   0.000        0
     3  hed3            1    7   25   0.000   0.000        0
     4  hed4            1    7   35   0.000   0.000        0
     5  hed5            1    7   45   0.000   0.000        0
     6  hed6            1   17    5   0.000   0.000        0
     7  hed7            1   17   15   0.000   0.000        0
     8  hed8            1   17   25   0.000   0.000        0
     9  hed9            1   17   35   0.000   0.000        0
    10  hed10           1   17   45   0.000   0.000        0
    11  hed11           1   27    5   0.000   0.000        0
    12  hed12           1   27   15   0.000   0.000        0
    13  hed13           1   27   25   0.000   0.000        0
    14  hed14           1   27   35   0.000   0.000        0
    15  hed15           1   27   45   0.000   0.000        0
    16  hed16           1   37    5   0.000   0.000        0
    17  hed17           1   37   15   0.000   0.000        0
    18  hed18           1   37   25   0.000   0.000        0
    19  hed19           1   37   35   0.000   0.000        0
    20  hed20           1   37   45   0.000   0.000        0
    21  hed21           1   47    5   0.000   0.000        0
    22  hed22           1   47   15   0.000   0.000        0
    23  hed23           1   47   25   0.000   0.000        0
    24  hed24           1   47   35   0.000   0.000        0
    25  hed25           1   47   45   0.000   0.000        0

 ADJ -- ADJOINT STATE SENSITIVITY PACKAGE, VERSION -- PRE-RELEASE
        INPUT READ FROM UNIT   35
 # Modflow 2005 ADJ File Input Adjoint
 USING OBSERVATION BASED ADJOINT STATE MODE
SENSITIVITY OUTPUT FILE CONTROL INFORMATION -   48  12   0   0
 Adjoint state solver information  read from unit 75
 PCG -- CONJUGATE-GRADIENT SOLUTION PACKAGE, VERSION 7, 5/2/2005
 MAXIMUM OF     50 CALLS OF SOLUTION ROUTINE
 MAXIMUM OF    100 INTERNAL ITERATIONS PER CALL TO SOLUTION ROUTINE
 MATRIX PRECONDITIONING TYPE :    1



                                    SOLUTION BY THE CONJUGATE-GRADIENT METHOD
                                   -------------------------------------------
                    MAXIMUM NUMBER OF CALLS TO PCG ROUTINE =       50
                        MAXIMUM ITERATIONS PER CALL TO PCG =      100
                               MATRIX PRECONDITIONING TYPE =        1
        RELAXATION FACTOR (ONLY USED WITH PRECOND. TYPE 1) =    0.10000E+01
 PARAMETER OF POLYNOMIAL PRECOND. = 2 (2) OR IS CALCULATED :        0
                         HEAD CHANGE CRITERION FOR CLOSURE =    0.10000E-05
                     RESIDUAL CHANGE CRITERION FOR CLOSURE =    0.10000E-04
            PCG HEAD AND RESIDUAL CHANGE PRINTOUT INTERVAL =      999
     PRINTING FROM SOLVER IS LIMITED(1) OR SUPPRESSED (>1) =        2
                            STEADY-STATE DAMPING PARAMETER =    0.10000E+01
                               TRANSIENT DAMPING PARAMETER =    0.10000E+01

 NUMBER OF PARAMETERS READ FROM ADJ FILE:     1
 NUMBER OF DISTRIBUTED PARAMETERS   2500
DISTRIBUTED PARAMETER SENSITIVITIES WRITTEN TO UNIT  48 USING OUTPUT FORMAT   1
RELATIVE SENSITIVITY CUTOFF =   0.000    
DISTRIBUTED PARAMETERS ARE PARAMETERS:
     1     1     1     1     1     1     1     1     1     1
DISTRIBUTED PARAMETERS ARE PARAMETERS:
     1     1     1     1     1     1     1     1     1     1
DISTRIBUTED PARAMETERS ARE PARAMETERS:
     1     1     1     1     1     1     1     1     1     1
DISTRIBUTED PARAMETERS ARE PARAMETERS:
     1     1     1     1     1     1     1     1     1     1
DISTRIBUTED PARAMETERS ARE PARAMETERS:
     1     1     1     1     1     1     1     1     1     1
DISTRIBUTED PARAMETERS ARE PARAMETERS:
     1     1     1     1     1     1     1     1     1     1
DISTRIBUTED PARAMETERS ARE PARAMETERS:
     1     1     1     1     1     1     1     1     1     1
DISTRIBUTED PARAMETERS ARE PARAMETERS:
     1     1     1     1     1     1     1     1     1     1
DISTRIBUTED PARAMETERS ARE PARAMETERS:
     1     1     1     1     1     1     1     1     1     1
DISTRIBUTED PARAMETERS ARE PARAMETERS:
     1     1     1     1     1     1     1     1     1     1
DISTRIBUTED PARAMETERS ARE PARAMETERS:
     1     1     1     1     1     1     1     1     1     1
DISTRIBUTED PARAMETERS ARE PARAMETERS:
     1     1     1     1     1     1     1     1     1     1
DISTRIBUTED PARAMETERS ARE PARAMETERS:
     1     1     1     1     1     1     1     1     1     1
DISTRIBUTED PARAMETERS ARE PARAMETERS:
     1     1     1     1     1     1     1     1     1     1
DISTRIBUTED PARAMETERS ARE PARAMETERS:
     1     1     1     1     1     1     1     1     1     1
DISTRIBUTED PARAMETERS ARE PARAMETERS:
     1     1     1     1     1     1     1     1     1     1
DISTRIBUTED PARAMETERS ARE PARAMETERS:
     1     1     1     1     1     1     1     1     1     1
DISTRIBUTED PARAMETERS ARE PARAMETERS:
     1     1     1     1     1     1     1     1     1     1
DISTRIBUTED PARAMETERS ARE PARAMETERS:
     1     1     1     1     1     1     1     1     1     1
DISTRIBUTED PARAMETERS ARE PARAMETERS:
     1     1     1     1     1     1     1     1     1     1
DISTRIBUTED PARAMETERS ARE PARAMETERS:
     1     1     1     1     1     1     1     1     1     1
DISTRIBUTED PARAMETERS ARE PARAMETERS:
     1     1     1     1     1     1     1     1     1     1
DISTRIBUTED PARAMETERS ARE PARAMETERS:
     1     1     1     1     1     1     1     1     1     1
DISTRIBUTED PARAMETERS ARE PARAMETERS:
     1     1     1     1     1     1     1     1     1     1
DISTRIBUTED PARAMETERS ARE PARAMETERS:
     1     1     1     1     1     1     1     1     1     1
DISTRIBUTED PARAMETERS ARE PARAMETERS:
     1     1     1     1     1     1     1     1     1     1
DISTRIBUTED PARAMETERS ARE PARAMETERS:
     1     1     1     1     1     1     1     1     1     1
DISTRIBUTED PARAMETERS ARE PARAMETERS:
     1     1     1     1     1     1     1     1     1     1
DISTRIBUTED PARAMETERS ARE PARAMETERS:
     1     1     1     1     1     1     1     1     1     1
DISTRIBUTED PARAMETERS ARE PARAMETERS:
     1     1     1     1     1     1     1     1     1     1
DISTRIBUTED PARAMETERS ARE PARAMETERS:
     1     1     1     1     1     1     1     1     1     1
DISTRIBUTED PARAMETERS ARE PARAMETERS:
     1     1     1     1     1     1     1     1     1     1
DISTRIBUTED PARAMETERS ARE PARAMETERS:
     1     1     1     1     1     1     1     1     1     1
DISTRIBUTED PARAMETERS ARE PARAMETERS:
     1     1     1     1     1     1     1     1     1     1
DISTRIBUTED PARAMETERS ARE PARAMETERS:
     1     1     1     1     1     1     1     1     1     1
DISTRIBUTED PARAMETERS ARE PARAMETERS:
     1     1     1     1     1     1     1     1     1     1
DISTRIBUTED PARAMETERS ARE PARAMETERS:
     1     1     1     1     1     1     1     1     1     1
DISTRIBUTED PARAMETERS ARE PARAMETERS:
     1     1     1     1     1     1     1     1     1     1
DISTRIBUTED PARAMETERS ARE PARAMETERS:
     1     1     1     1     1     1     1     1     1     1
DISTRIBUTED PARAMETERS ARE PARAMETERS:
     1     1     1     1     1     1     1     1     1     1
DISTRIBUTED PARAMETERS ARE PARAMETERS:
     1     1     1     1     1     1     1     1     1     1
DISTRIBUTED PARAMETERS ARE PARAMETERS:
     1     1     1     1     1     1     1     1     1     1
DISTRIBUTED PARAMETERS ARE PARAMETERS:
     1     1     1     1     1     1     1     1     1     1
DISTRIBUTED PARAMETERS ARE PARAMETERS:
     1     1     1     1     1     1     1     1     1     1
DISTRIBUTED PARAMETERS ARE PARAMETERS:
     1     1     1     1     1     1     1     1     1     1
DISTRIBUTED PARAMETERS ARE PARAMETERS:
     1     1     1     1     1     1     1     1     1     1
DISTRIBUTED PARAMETERS ARE PARAMETERS:
     1     1     1     1     1     1     1     1     1     1
DISTRIBUTED PARAMETERS ARE PARAMETERS:
     1     1     1     1     1     1     1     1     1     1
DISTRIBUTED PARAMETERS ARE PARAMETERS:
     1     1     1     1     1     1     1     1     1     1
DISTRIBUTED PARAMETERS ARE PARAMETERS:
     1     1     1     1     1     1     1     1     1     1
DISTRIBUTED PARAMETERS ARE PARAMETERS:
     1     1     1     1     1     1     1     1     1     1
DISTRIBUTED PARAMETERS ARE PARAMETERS:
     1     1     1     1     1     1     1     1     1     1
DISTRIBUTED PARAMETERS ARE PARAMETERS:
     1     1     1     1     1     1     1     1     1     1
DISTRIBUTED PARAMETERS ARE PARAMETERS:
     1     1     1     1     1     1     1     1     1     1
DISTRIBUTED PARAMETERS ARE PARAMETERS:
     1     1     1     1     1     1     1     1     1     1
DISTRIBUTED PARAMETERS ARE PARAMETERS:
     1     1     1     1     1     1     1     1     1     1
DISTRIBUTED PARAMETERS ARE PARAMETERS:
     1     1     1     1     1     1     1     1     1     1
DISTRIBUTED PARAMETERS ARE PARAMETERS:
     1     1     1     1     1     1     1     1     1     1
DISTRIBUTED PARAMETERS ARE PARAMETERS:
     1     1     1     1     1     1     1     1     1     1
DISTRIBUTED PARAMETERS ARE PARAMETERS:
     1     1     1     1     1     1     1     1     1     1
DISTRIBUTED PARAMETERS ARE PARAMETERS:
     1     1     1     1     1     1     1     1     1     1
DISTRIBUTED PARAMETERS ARE PARAMETERS:
     1     1     1     1     1     1     1     1     1     1
DISTRIBUTED PARAMETERS ARE PARAMETERS:
     1     1     1     1     1     1     1     1     1     1
DISTRIBUTED PARAMETERS ARE PARAMETERS:
     1     1     1     1     1     1     1     1     1     1
DISTRIBUTED PARAMETERS ARE PARAMETERS:
     1     1     1     1     1     1     1     1     1     1
DISTRIBUTED PARAMETERS ARE PARAMETERS:
     1     1     1     1     1     1     1     1     1     1
DISTRIBUTED PARAMETERS ARE PARAMETERS:
     1     1     1     1     1     1     1     1     1     1
DISTRIBUTED PARAMETERS ARE PARAMETERS:
     1     1     1     1     1     1     1     1     1     1
DISTRIBUTED PARAMETERS ARE PARAMETERS:
     1     1     1     1     1     1     1     1     1     1
DISTRIBUTED PARAMETERS ARE PARAMETERS:
     1     1     1     1     1     1     1     1     1     1
DISTRIBUTED PARAMETERS ARE PARAMETERS:
     1     1     1     1     1     1     1     1     1     1
DISTRIBUTED PARAMETERS ARE PARAMETERS:
     1     1     1     1     1     1     1     1     1     1
DISTRIBUTED PARAMETERS ARE PARAMETERS:
     1     1     1     1     1     1     1     1     1     1
DISTRIBUTED PARAMETERS ARE PARAMETERS:
     1     1     1     1     1     1     1     1     1     1
DISTRIBUTED PARAMETERS ARE PARAMETERS:
     1     1     1     1     1     1     1     1     1     1
DISTRIBUTED PARAMETERS ARE PARAMETERS:
     1     1     1     1     1     1     1     1     1     1
DISTRIBUTED PARAMETERS ARE PARAMETERS:
     1     1     1     1     1     1     1     1     1     1
DISTRIBUTED PARAMETERS ARE PARAMETERS:
     1     1     1     1     1     1     1     1     1     1
DISTRIBUTED PARAMETERS ARE PARAMETERS:
     1     1     1     1     1     1     1     1     1     1
DISTRIBUTED PARAMETERS ARE PARAMETERS:
     1     1     1     1     1     1     1     1     1     1
DISTRIBUTED PARAMETERS ARE PARAMETERS:
     1     1     1     1     1     1     1     1     1     1
DISTRIBUTED PARAMETERS ARE PARAMETERS:
     1     1     1     1     1     1     1     1     1     1
DISTRIBUTED PARAMETERS ARE PARAMETERS:
     1     1     1     1     1     1     1     1     1     1
DISTRIBUTED PARAMETERS ARE PARAMETERS:
     1     1     1     1     1     1     1     1     1     1
DISTRIBUTED PARAMETERS ARE PARAMETERS:
     1     1     1     1     1     1     1     1     1     1
DISTRIBUTED PARAMETERS ARE PARAMETERS:
     1     1     1     1     1     1     1     1     1     1
DISTRIBUTED PARAMETERS ARE PARAMETERS:
     1     1     1     1     1     1     1     1     1     1
DISTRIBUTED PARAMETERS ARE PARAMETERS:
     1     1     1     1     1     1     1     1     1     1
DISTRIBUTED PARAMETERS ARE PARAMETERS:
     1     1     1     1     1     1     1     1     1     1
DISTRIBUTED PARAMETERS ARE PARAMETERS:
     1     1     1     1     1     1     1     1     1     1
DISTRIBUTED PARAMETERS ARE PARAMETERS:
     1     1     1     1     1     1     1     1     1     1
DISTRIBUTED PARAMETERS ARE PARAMETERS:
     1     1     1     1     1     1     1     1     1     1
DISTRIBUTED PARAMETERS ARE PARAMETERS:
     1     1     1     1     1     1     1     1     1     1
DISTRIBUTED PARAMETERS ARE PARAMETERS:
     1     1     1     1     1     1     1     1     1     1
DISTRIBUTED PARAMETERS ARE PARAMETERS:
     1     1     1     1     1     1     1     1     1     1
DISTRIBUTED PARAMETERS ARE PARAMETERS:
     1     1     1     1     1     1     1     1     1     1
DISTRIBUTED PARAMETERS ARE PARAMETERS:
     1     1     1     1     1     1     1     1     1     1
DISTRIBUTED PARAMETERS ARE PARAMETERS:
     1     1     1     1     1     1     1     1     1     1
DISTRIBUTED PARAMETERS ARE PARAMETERS:
     1     1     1     1     1     1     1     1     1     1
DISTRIBUTED PARAMETERS ARE PARAMETERS:
     1     1     1     1     1     1     1     1     1     1
DISTRIBUTED PARAMETERS ARE PARAMETERS:
     1     1     1     1     1     1     1     1     1     1
DISTRIBUTED PARAMETERS ARE PARAMETERS:
     1     1     1     1     1     1     1     1     1     1
DISTRIBUTED PARAMETERS ARE PARAMETERS:
     1     1     1     1     1     1     1     1     1     1
DISTRIBUTED PARAMETERS ARE PARAMETERS:
     1     1     1     1     1     1     1     1     1     1
DISTRIBUTED PARAMETERS ARE PARAMETERS:
     1     1     1     1     1     1     1     1     1     1
DISTRIBUTED PARAMETERS ARE PARAMETERS:
     1     1     1     1     1     1     1     1     1     1
DISTRIBUTED PARAMETERS ARE PARAMETERS:
     1     1     1     1     1     1     1     1     1     1
DISTRIBUTED PARAMETERS ARE PARAMETERS:
     1     1     1     1     1     1     1     1     1     1
DISTRIBUTED PARAMETERS ARE PARAMETERS:
     1     1     1     1     1     1     1     1     1     1
DISTRIBUTED PARAMETERS ARE PARAMETERS:
     1     1     1     1     1     1     1     1     1     1
DISTRIBUTED PARAMETERS ARE PARAMETERS:
     1     1     1     1     1     1     1     1     1     1
DISTRIBUTED PARAMETERS ARE PARAMETERS:
     1     1     1     1     1     1     1     1     1     1
DISTRIBUTED PARAMETERS ARE PARAMETERS:
     1     1     1     1     1     1     1     1     1     1
DISTRIBUTED PARAMETERS ARE PARAMETERS:
     1     1     1     1     1     1     1     1     1     1
DISTRIBUTED PARAMETERS ARE PARAMETERS:
     1     1     1     1     1     1     1     1     1     1
DISTRIBUTED PARAMETERS ARE PARAMETERS:
     1     1     1     1     1     1     1     1     1     1
DISTRIBUTED PARAMETERS ARE PARAMETERS:
     1     1     1     1     1     1     1     1     1     1
DISTRIBUTED PARAMETERS ARE PARAMETERS:
     1     1     1     1     1     1     1     1     1     1
DISTRIBUTED PARAMETERS ARE PARAMETERS:
     1     1     1     1     1     1     1     1     1     1
DISTRIBUTED PARAMETERS ARE PARAMETERS:
     1     1     1     1     1     1     1     1     1     1
DISTRIBUTED PARAMETERS ARE PARAMETERS:
     1     1     1     1     1     1     1     1     1     1
DISTRIBUTED PARAMETERS ARE PARAMETERS:
     1     1     1     1     1     1     1     1     1     1
DISTRIBUTED PARAMETERS ARE PARAMETERS:
     1     1     1     1     1     1     1     1     1     1
DISTRIBUTED PARAMETERS ARE PARAMETERS:
     1     1     1     1     1     1     1     1     1     1
DISTRIBUTED PARAMETERS ARE PARAMETERS:
     1     1     1     1     1     1     1     1     1     1
DISTRIBUTED PARAMETERS ARE PARAMETERS:
     1     1     1     1     1     1     1     1     1     1
DISTRIBUTED PARAMETERS ARE PARAMETERS:
     1     1     1     1     1     1     1     1     1     1
DISTRIBUTED PARAMETERS ARE PARAMETERS:
     1     1     1     1     1     1     1     1     1     1
DISTRIBUTED PARAMETERS ARE PARAMETERS:
     1     1     1     1     1     1     1     1     1     1
DISTRIBUTED PARAMETERS ARE PARAMETERS:
     1     1     1     1     1     1     1     1     1     1
DISTRIBUTED PARAMETERS ARE PARAMETERS:
     1     1     1     1     1     1     1     1     1     1
DISTRIBUTED PARAMETERS ARE PARAMETERS:
     1     1     1     1     1     1     1     1     1     1
DISTRIBUTED PARAMETERS ARE PARAMETERS:
     1     1     1     1     1     1     1     1     1     1
DISTRIBUTED PARAMETERS ARE PARAMETERS:
     1     1     1     1     1     1     1     1     1     1
DISTRIBUTED PARAMETERS ARE PARAMETERS:
     1     1     1     1     1     1     1     1     1     1
DISTRIBUTED PARAMETERS ARE PARAMETERS:
     1     1     1     1     1     1     1     1     1     1
DISTRIBUTED PARAMETERS ARE PARAMETERS:
     1     1     1     1     1     1     1     1     1     1
DISTRIBUTED PARAMETERS ARE PARAMETERS:
     1     1     1     1     1     1     1     1     1     1
DISTRIBUTED PARAMETERS ARE PARAMETERS:
     1     1     1     1     1     1     1     1     1     1
DISTRIBUTED PARAMETERS ARE PARAMETERS:
     1     1     1     1     1     1     1     1     1     1
DISTRIBUTED PARAMETERS ARE PARAMETERS:
     1     1     1     1     1     1     1     1     1     1
DISTRIBUTED PARAMETERS ARE PARAMETERS:
     1     1     1     1     1     1     1     1     1     1
DISTRIBUTED PARAMETERS ARE PARAMETERS:
     1     1     1     1     1     1     1     1     1     1
DISTRIBUTED PARAMETERS ARE PARAMETERS:
     1     1     1     1     1     1     1     1     1     1
DISTRIBUTED PARAMETERS ARE PARAMETERS:
     1     1     1     1     1     1     1     1     1     1
DISTRIBUTED PARAMETERS ARE PARAMETERS:
     1     1     1     1     1     1     1     1     1     1
DISTRIBUTED PARAMETERS ARE PARAMETERS:
     1     1     1     1     1     1     1     1     1     1
DISTRIBUTED PARAMETERS ARE PARAMETERS:
     1     1     1     1     1     1     1     1     1     1
DISTRIBUTED PARAMETERS ARE PARAMETERS:
     1     1     1     1     1     1     1     1     1     1
DISTRIBUTED PARAMETERS ARE PARAMETERS:
     1     1     1     1     1     1     1     1     1     1
DISTRIBUTED PARAMETERS ARE PARAMETERS:
     1     1     1     1     1     1     1     1     1     1
DISTRIBUTED PARAMETERS ARE PARAMETERS:
     1     1     1     1     1     1     1     1     1     1
DISTRIBUTED PARAMETERS ARE PARAMETERS:
     1     1     1     1     1     1     1     1     1     1
DISTRIBUTED PARAMETERS ARE PARAMETERS:
     1     1     1     1     1     1     1     1     1     1
DISTRIBUTED PARAMETERS ARE PARAMETERS:
     1     1     1     1     1     1     1     1     1     1
DISTRIBUTED PARAMETERS ARE PARAMETERS:
     1     1     1     1     1     1     1     1     1     1
DISTRIBUTED PARAMETERS ARE PARAMETERS:
     1     1     1     1     1     1     1     1     1     1
DISTRIBUTED PARAMETERS ARE PARAMETERS:
     1     1     1     1     1     1     1     1     1     1
DISTRIBUTED PARAMETERS ARE PARAMETERS:
     1     1     1     1     1     1     1     1     1     1
DISTRIBUTED PARAMETERS ARE PARAMETERS:
     1     1     1     1     1     1     1     1     1     1
DISTRIBUTED PARAMETERS ARE PARAMETERS:
     1     1     1     1     1     1     1     1     1     1
DISTRIBUTED PARAMETERS ARE PARAMETERS:
     1     1     1     1     1     1     1     1     1     1
DISTRIBUTED PARAMETERS ARE PARAMETERS:
     1     1     1     1     1     1     1     1     1     1
DISTRIBUTED PARAMETERS ARE PARAMETERS:
     1     1     1     1     1     1     1     1     1     1
DISTRIBUTED PARAMETERS ARE PARAMETERS:
     1     1     1     1     1     1     1     1     1     1
DISTRIBUTED PARAMETERS ARE PARAMETERS:
     1     1     1     1     1     1     1     1     1     1
DISTRIBUTED PARAMETERS ARE PARAMETERS:
     1     1     1     1     1     1     1     1     1     1
DISTRIBUTED PARAMETERS ARE PARAMETERS:
     1     1     1     1     1     1     1     1     1     1
DISTRIBUTED PARAMETERS ARE PARAMETERS:
     1     1     1     1     1     1     1     1     1     1
DISTRIBUTED PARAMETERS ARE PARAMETERS:
     1     1     1     1     1     1     1     1     1     1
DISTRIBUTED PARAMETERS ARE PARAMETERS:
     1     1     1     1     1     1     1     1     1     1
DISTRIBUTED PARAMETERS ARE PARAMETERS:
     1     1     1     1     1     1     1     1     1     1
DISTRIBUTED PARAMETERS ARE PARAMETERS:
     1     1     1     1     1     1     1     1     1     1
DISTRIBUTED PARAMETERS ARE PARAMETERS:
     1     1     1     1     1     1     1     1     1     1
DISTRIBUTED PARAMETERS ARE PARAMETERS:
     1     1     1     1     1     1     1     1     1     1
DISTRIBUTED PARAMETERS ARE PARAMETERS:
     1     1     1     1     1     1     1     1     1     1
DISTRIBUTED PARAMETERS ARE PARAMETERS:
     1     1     1     1     1     1     1     1     1     1
DISTRIBUTED PARAMETERS ARE PARAMETERS:
     1     1     1     1     1     1     1     1     1     1
DISTRIBUTED PARAMETERS ARE PARAMETERS:
     1     1     1     1     1     1     1     1     1     1
DISTRIBUTED PARAMETERS ARE PARAMETERS:
     1     1     1     1     1     1     1     1     1     1
DISTRIBUTED PARAMETERS ARE PARAMETERS:
     1     1     1     1     1     1     1     1     1     1
DISTRIBUTED PARAMETERS ARE PARAMETERS:
     1     1     1     1     1     1     1     1     1     1
DISTRIBUTED PARAMETERS ARE PARAMETERS:
     1     1     1     1     1     1     1     1     1     1
DISTRIBUTED PARAMETERS ARE PARAMETERS:
     1     1     1     1     1     1     1     1     1     1
DISTRIBUTED PARAMETERS ARE PARAMETERS:
     1     1     1     1     1     1     1     1     1     1
DISTRIBUTED PARAMETERS ARE PARAMETERS:
     1     1     1     1     1     1     1     1     1     1
DISTRIBUTED PARAMETERS ARE PARAMETERS:
     1     1     1     1     1     1     1     1     1     1
DISTRIBUTED PARAMETERS ARE PARAMETERS:
     1     1     1     1     1     1     1     1     1     1
DISTRIBUTED PARAMETERS ARE PARAMETERS:
     1     1     1     1     1     1     1     1     1     1
DISTRIBUTED PARAMETERS ARE PARAMETERS:
     1     1     1     1     1     1     1     1     1     1
DISTRIBUTED PARAMETERS ARE PARAMETERS:
     1     1     1     1     1     1     1     1     1     1
DISTRIBUTED PARAMETERS ARE PARAMETERS:
     1     1     1     1     1     1     1     1     1     1
DISTRIBUTED PARAMETERS ARE PARAMETERS:
     1     1     1     1     1     1     1     1     1     1
DISTRIBUTED PARAMETERS ARE PARAMETERS:
     1     1     1     1     1     1     1     1     1     1
DISTRIBUTED PARAMETERS ARE PARAMETERS:
     1     1     1     1     1     1     1     1     1     1
DISTRIBUTED PARAMETERS ARE PARAMETERS:
     1     1     1     1     1     1     1     1     1     1
DISTRIBUTED PARAMETERS ARE PARAMETERS:
     1     1     1     1     1     1     1     1     1     1
DISTRIBUTED PARAMETERS ARE PARAMETERS:
     1     1     1     1     1     1     1     1     1     1
DISTRIBUTED PARAMETERS ARE PARAMETERS:
     1     1     1     1     1     1     1     1     1     1
DISTRIBUTED PARAMETERS ARE PARAMETERS:
     1     1     1     1     1     1     1     1     1     1
DISTRIBUTED PARAMETERS ARE PARAMETERS:
     1     1     1     1     1     1     1     1     1     1
DISTRIBUTED PARAMETERS ARE PARAMETERS:
     1     1     1     1     1     1     1     1     1     1
DISTRIBUTED PARAMETERS ARE PARAMETERS:
     1     1     1     1     1     1     1     1     1     1
DISTRIBUTED PARAMETERS ARE PARAMETERS:
     1     1     1     1     1     1     1     1     1     1
DISTRIBUTED PARAMETERS ARE PARAMETERS:
     1     1     1     1     1     1     1     1     1     1
DISTRIBUTED PARAMETERS ARE PARAMETERS:
     1     1     1     1     1     1     1     1     1     1
DISTRIBUTED PARAMETERS ARE PARAMETERS:
     1     1     1     1     1     1     1     1     1     1
DISTRIBUTED PARAMETERS ARE PARAMETERS:
     1     1     1     1     1     1     1     1     1     1
DISTRIBUTED PARAMETERS ARE PARAMETERS:
     1     1     1     1     1     1     1     1     1     1
DISTRIBUTED PARAMETERS ARE PARAMETERS:
     1     1     1     1     1     1     1     1     1     1
DISTRIBUTED PARAMETERS ARE PARAMETERS:
     1     1     1     1     1     1     1     1     1     1
DISTRIBUTED PARAMETERS ARE PARAMETERS:
     1     1     1     1     1     1     1     1     1     1
DISTRIBUTED PARAMETERS ARE PARAMETERS:
     1     1     1     1     1     1     1     1     1     1
DISTRIBUTED PARAMETERS ARE PARAMETERS:
     1     1     1     1     1     1     1     1     1     1
DISTRIBUTED PARAMETERS ARE PARAMETERS:
     1     1     1     1     1     1     1     1     1     1
DISTRIBUTED PARAMETERS ARE PARAMETERS:
     1     1     1     1     1     1     1     1     1     1
DISTRIBUTED PARAMETERS ARE PARAMETERS:
     1     1     1     1     1     1     1     1     1     1
DISTRIBUTED PARAMETERS ARE PARAMETERS:
     1     1     1     1     1     1     1     1     1     1
DISTRIBUTED PARAMETERS ARE PARAMETERS:
     1     1     1     1     1     1     1     1     1     1
DISTRIBUTED PARAMETERS ARE PARAMETERS:
     1     1     1     1     1     1     1     1     1     1
DISTRIBUTED PARAMETERS ARE PARAMETERS:
     1     1     1     1     1     1     1     1     1     1
DISTRIBUTED PARAMETERS ARE PARAMETERS:
     1     1     1     1     1     1     1     1     1     1
DISTRIBUTED PARAMETERS ARE PARAMETERS:
     1     1     1     1     1     1     1     1     1     1
DISTRIBUTED PARAMETERS ARE PARAMETERS:
     1     1     1     1     1     1     1     1     1     1
DISTRIBUTED PARAMETERS ARE PARAMETERS:
     1     1     1     1     1     1     1     1     1     1
DISTRIBUTED PARAMETERS ARE PARAMETERS:
     1     1     1     1     1     1     1     1     1     1
DISTRIBUTED PARAMETERS ARE PARAMETERS:
     1     1     1     1     1     1     1     1     1     1
DISTRIBUTED PARAMETERS ARE PARAMETERS:
     1     1     1     1     1     1     1     1     1     1
DISTRIBUTED PARAMETERS ARE PARAMETERS:
     1     1     1     1     1     1     1     1     1     1
DISTRIBUTED PARAMETERS ARE PARAMETERS:
     1     1     1     1     1     1     1     1     1     1
DISTRIBUTED PARAMETERS ARE PARAMETERS:
     1     1     1     1     1     1     1     1     1     1
DISTRIBUTED PARAMETERS ARE PARAMETERS:
     1     1     1     1     1     1     1     1     1     1
DISTRIBUTED PARAMETERS ARE PARAMETERS:
     1     1     1     1     1     1     1     1     1     1
DISTRIBUTED PARAMETERS ARE PARAMETERS:
     1     1     1     1     1     1     1     1     1     1
DISTRIBUTED PARAMETERS ARE PARAMETERS:
     1     1     1     1     1     1     1     1     1     1
DISTRIBUTED PARAMETERS ARE PARAMETERS:
     1     1     1     1     1     1     1     1     1     1
DISTRIBUTED PARAMETERS ARE PARAMETERS:
     1     1     1     1     1     1     1     1     1     1
DISTRIBUTED PARAMETERS ARE PARAMETERS:
     1     1     1     1     1     1     1     1     1     1
DISTRIBUTED PARAMETERS ARE PARAMETERS:
     1     1     1     1     1     1     1     1     1     1
DISTRIBUTED PARAMETERS ARE PARAMETERS:
     1     1     1     1     1     1     1     1     1     1
DISTRIBUTED PARAMETERS ARE PARAMETERS:
     1     1     1     1     1     1     1     1     1     1
DISTRIBUTED PARAMETERS ARE PARAMETERS:
     1     1     1     1     1     1     1     1     1     1
DISTRIBUTED PARAMETERS ARE PARAMETERS:
     1     1     1     1     1     1     1     1     1     1
DISTRIBUTED PARAMETERS ARE PARAMETERS:
     1     1     1     1     1     1     1     1     1     1
DISTRIBUTED PARAMETERS ARE PARAMETERS:
     1     1     1     1     1     1     1     1     1     1
DISTRIBUTED PARAMETERS ARE PARAMETERS:
     1     1     1     1     1     1     1     1     1     1
DISTRIBUTED PARAMETERS ARE PARAMETERS:
     1     1     1     1     1     1     1     1     1     1
DISTRIBUTED PARAMETERS ARE PARAMETERS:
     1     1     1     1     1     1     1     1     1     1
DISTRIBUTED PARAMETERS ARE PARAMETERS:
     1     1     1     1     1     1     1     1     1     1
DISTRIBUTED PARAMETERS ARE PARAMETERS:
     1     1     1     1     1     1     1     1     1     1

 INFORMATION ON PARAMETERS LISTED IN ADJ FILE

    NAME     LN
 ----------  -----  
 HK_Par        0
1
                            STRESS PERIOD NO.    1, LENGTH =   1.000000    
                            -----------------------------------------------

                              NUMBER OF TIME STEPS =     1

                               MULTIPLIER FOR DELT =     1.000

                            INITIAL TIME STEP SIZE =   1.000000    

 WELL NO.  LAYER   ROW   COL   STRESS RATE         
 --------------------------------------------------
      1      1     27     20      -4994.    

      1 WELL 



                           RECHARGE
 READING ON UNIT  713 WITH FORMAT: (FREE)              
 
 SOLVING FOR HEAD 

 OUTPUT CONTROL FOR STRESS PERIOD    1   TIME STEP    1
    PRINT BUDGET
    SAVE HEAD FOR ALL LAYERS
    SAVE BUDGET
 UBDSV2 SAVING "   CONSTANT HEAD" ON UNIT 740 AT TIME STEP  1, STRESS PERIOD   1
 UBDSV1 SAVING "FLOW RIGHT FACE " ON UNIT 740 AT TIME STEP  1, STRESS PERIOD   1
 UBDSV1 SAVING "FLOW FRONT FACE " ON UNIT 740 AT TIME STEP  1, STRESS PERIOD   1
 UBDSV4 SAVING "           WELLS" ON UNIT 740 AT TIME STEP  1, STRESS PERIOD   1
 UBDSV3 SAVING "        RECHARGE" ON UNIT 740 AT TIME STEP  1, STRESS PERIOD   1

 HEAD WILL BE SAVED ON UNIT  702 AT END OF TIME STEP    1, STRESS PERIOD    1
1
  VOLUMETRIC BUDGET FOR ENTIRE MODEL AT END OF TIME STEP    1, STRESS PERIOD   1
  ------------------------------------------------------------------------------

     CUMULATIVE VOLUMES      L**3       RATES FOR THIS TIME STEP      L**3/T
     ------------------                 ------------------------

           IN:                                      IN:
           ---                                      ---
             STORAGE =           0.0000               STORAGE =           0.0000
       CONSTANT HEAD =           0.0000         CONSTANT HEAD =           0.0000
               WELLS =           0.0000                 WELLS =           0.0000
            RECHARGE =       23855.9980              RECHARGE =       23855.9980

            TOTAL IN =       23855.9980              TOTAL IN =       23855.9980

          OUT:                                     OUT:
          ----                                     ----
             STORAGE =           0.0000               STORAGE =           0.0000
       CONSTANT HEAD =       18862.0820         CONSTANT HEAD =       18862.0820
               WELLS =        4993.9199                 WELLS =        4993.9199
            RECHARGE =           0.0000              RECHARGE =           0.0000

           TOTAL OUT =       23856.0020             TOTAL OUT =       23856.0020

            IN - OUT =      -3.9062E-03              IN - OUT =      -3.9062E-03

 PERCENT DISCREPANCY =           0.00     PERCENT DISCREPANCY =           0.00






         TIME SUMMARY AT END OF TIME STEP    1 IN STRESS PERIOD    1
                    SECONDS     MINUTES      HOURS       DAYS        YEARS
                    -----------------------------------------------------------
   TIME STEP LENGTH  86400.      1440.0      24.000      1.0000     2.73785E-03
 STRESS PERIOD TIME  86400.      1440.0      24.000      1.0000     2.73785E-03
         TOTAL TIME  86400.      1440.0      24.000      1.0000     2.73785E-03
1
  START OF ADJOINT STATE CALCULATIONS
 SUM OF POSITIVE RATES= 1.00000E+00    SUM OF NEGATIVE RATES= 9.99998E-01
               PERCENT DISCREPANCY= 2.30E-04
        SENSITIVITY CALCULATION FOR GLOBAL OBSERVATION  1 hed1        
 SUM OF POSITIVE RATES= 1.00000E+00    SUM OF NEGATIVE RATES= 9.99961E-01
               PERCENT DISCREPANCY= 3.87E-03
        SENSITIVITY CALCULATION FOR GLOBAL OBSERVATION  2 hed2        
 SUM OF POSITIVE RATES= 1.00000E+00    SUM OF NEGATIVE RATES= 9.99952E-01
               PERCENT DISCREPANCY= 4.83E-03
        SENSITIVITY CALCULATION FOR GLOBAL OBSERVATION  3 hed3        
 SUM OF POSITIVE RATES= 1.00000E+00    SUM OF NEGATIVE RATES= 9.99961E-01
               PERCENT DISCREPANCY= 3.86E-03
        SENSITIVITY CALCULATION FOR GLOBAL OBSERVATION  4 hed4        
 SUM OF POSITIVE RATES= 1.00000E+00    SUM OF NEGATIVE RATES= 9.99993E-01
               PERCENT DISCREPANCY= 7.11E-04
        SENSITIVITY CALCULATION FOR GLOBAL OBSERVATION  5 hed5        
 SUM OF POSITIVE RATES= 1.00000E+00    SUM OF NEGATIVE RATES= 9.99988E-01
               PERCENT DISCREPANCY= 1.18E-03
        SENSITIVITY CALCULATION FOR GLOBAL OBSERVATION  6 hed6        
 SUM OF POSITIVE RATES= 1.00000E+00    SUM OF NEGATIVE RATES= 9.99966E-01
               PERCENT DISCREPANCY= 3.37E-03
        SENSITIVITY CALCULATION FOR GLOBAL OBSERVATION  7 hed7        
 SUM OF POSITIVE RATES= 1.00000E+00    SUM OF NEGATIVE RATES= 9.99976E-01
               PERCENT DISCREPANCY= 2.35E-03
        SENSITIVITY CALCULATION FOR GLOBAL OBSERVATION  8 hed8        
 SUM OF POSITIVE RATES= 1.00000E+00    SUM OF NEGATIVE RATES= 9.99983E-01
               PERCENT DISCREPANCY= 1.70E-03
        SENSITIVITY CALCULATION FOR GLOBAL OBSERVATION  9 hed9        
 SUM OF POSITIVE RATES= 1.00000E+00    SUM OF NEGATIVE RATES= 9.99995E-01
               PERCENT DISCREPANCY= 4.99E-04
        SENSITIVITY CALCULATION FOR GLOBAL OBSERVATION 10 hed10       
 SUM OF POSITIVE RATES= 1.00000E+00    SUM OF NEGATIVE RATES= 9.99989E-01
               PERCENT DISCREPANCY= 1.14E-03
        SENSITIVITY CALCULATION FOR GLOBAL OBSERVATION 11 hed11       
 SUM OF POSITIVE RATES= 1.00000E+00    SUM OF NEGATIVE RATES= 9.99973E-01
               PERCENT DISCREPANCY= 2.73E-03
        SENSITIVITY CALCULATION FOR GLOBAL OBSERVATION 12 hed12       
 SUM OF POSITIVE RATES= 1.00000E+00    SUM OF NEGATIVE RATES= 9.99980E-01
               PERCENT DISCREPANCY= 2.04E-03
        SENSITIVITY CALCULATION FOR GLOBAL OBSERVATION 13 hed13       
 SUM OF POSITIVE RATES= 1.00000E+00    SUM OF NEGATIVE RATES= 9.99992E-01
               PERCENT DISCREPANCY= 7.55E-04
        SENSITIVITY CALCULATION FOR GLOBAL OBSERVATION 14 hed14       
 SUM OF POSITIVE RATES= 1.00000E+00    SUM OF NEGATIVE RATES= 9.99996E-01
               PERCENT DISCREPANCY= 3.98E-04
        SENSITIVITY CALCULATION FOR GLOBAL OBSERVATION 15 hed15       
 SUM OF POSITIVE RATES= 1.00000E+00    SUM OF NEGATIVE RATES= 9.99987E-01
               PERCENT DISCREPANCY= 1.32E-03
        SENSITIVITY CALCULATION FOR GLOBAL OBSERVATION 16 hed16       
 SUM OF POSITIVE RATES= 1.00000E+00    SUM OF NEGATIVE RATES= 9.99976E-01
               PERCENT DISCREPANCY= 2.43E-03
        SENSITIVITY CALCULATION FOR GLOBAL OBSERVATION 17 hed17       
 SUM OF POSITIVE RATES= 1.00000E+00    SUM OF NEGATIVE RATES= 1.00001E+00
               PERCENT DISCREPANCY=-5.70E-04
        SENSITIVITY CALCULATION FOR GLOBAL OBSERVATION 18 hed18       
 SUM OF POSITIVE RATES= 1.00000E+00    SUM OF NEGATIVE RATES= 1.00000E+00
               PERCENT DISCREPANCY=-3.06E-04
        SENSITIVITY CALCULATION FOR GLOBAL OBSERVATION 19 hed19       
 SUM OF POSITIVE RATES= 1.00000E+00    SUM OF NEGATIVE RATES= 1.00002E+00
               PERCENT DISCREPANCY=-1.59E-03
        SENSITIVITY CALCULATION FOR GLOBAL OBSERVATION 20 hed20       
 SUM OF POSITIVE RATES= 1.00000E+00    SUM OF NEGATIVE RATES= 9.99999E-01
               PERCENT DISCREPANCY= 1.04E-04
        SENSITIVITY CALCULATION FOR GLOBAL OBSERVATION 21 hed21       
 SUM OF POSITIVE RATES= 1.00000E+00    SUM OF NEGATIVE RATES= 1.00000E+00
               PERCENT DISCREPANCY=-1.58E-04
        SENSITIVITY CALCULATION FOR GLOBAL OBSERVATION 22 hed22       
 SUM OF POSITIVE RATES= 1.00000E+00    SUM OF NEGATIVE RATES= 1.00001E+00
               PERCENT DISCREPANCY=-7.36E-04
        SENSITIVITY CALCULATION FOR GLOBAL OBSERVATION 23 hed23       
 SUM OF POSITIVE RATES= 1.00000E+00    SUM OF NEGATIVE RATES= 9.99996E-01
               PERCENT DISCREPANCY= 3.51E-04
        SENSITIVITY CALCULATION FOR GLOBAL OBSERVATION 24 hed24       
 SUM OF POSITIVE RATES= 1.00000E+00    SUM OF NEGATIVE RATES= 9.99999E-01
               PERCENT DISCREPANCY= 1.46E-04
        SENSITIVITY CALCULATION FOR GLOBAL OBSERVATION 25 hed25       
### WARNING RATE DISCREPANCIES MAY LEAD TO INACCURATE SENSITIVITIES
    MAXIMUM DISCREPANCY = 4.83E-03 PERCENT

 HEAD AND DRAWDOWN OBSERVATIONS
 OBSERVATION       OBSERVED           SIMULATED
   NAME              VALUE              VALUE             DIFFERENCE
 --------------------------------------------------------------------
 hed1            2.1427335739        2.1432747841      -5.41210174561E-04
 hed2            25.922185898        25.922653198      -4.67300415039E-04
 hed3            34.206703186        34.206623077       8.01086425781E-05
 hed4            27.136491776        27.136211395       2.80380249023E-04
 hed5            11.037768364        11.037554741       2.13623046875E-04
 hed6            4.5201377869        4.5204167366      -2.78949737549E-04
 hed7            24.695287704        24.696205139      -9.17434692383E-04
 hed8            26.565475464        26.565435410       4.00543212891E-05
 hed9            23.496534348        23.496013641       5.20706176758E-04
 hed10           17.585252762        17.582008362       3.24440002441E-03
 hed11           9.2263069153        9.2282848358      -1.97792053223E-03
 hed12           17.117977142        17.121664047      -3.68690490723E-03
 hed13           17.640064240        17.640909195      -8.44955444336E-04
 hed14           26.291742325        26.281835556       9.90676879883E-03
 hed15           13.621591568        13.617822647       3.76892089844E-03
 hed16           10.129151344        10.134264946      -5.11360168457E-03
 hed17           18.289443970        18.299715042      -1.02710723877E-02
 hed18           23.900678635        23.907375336      -6.69670104980E-03
 hed19           30.499807358        30.444526672       5.52806854248E-02
 hed20           21.235864639        21.200355530       3.55091094971E-02
 hed21           1.2266690731        1.2448840141      -1.82149410248E-02
 hed22           18.316692352        18.339893341      -2.32009887695E-02
 hed23           27.349287033        27.369413376      -2.01263427734E-02
 hed24           24.222803116        24.271863937      -4.90608215332E-02
 hed25           14.563868523        14.565073967      -1.20544433594E-03

 HEAD/DRAWDOWN SUM OF SQUARED DIFFERENCE:    8.31983E-03

 Run end date and time (yyyy/mm/dd hh:mm:ss): 2018/11/20  9:22:04
 Elapsed run time:  0.833 Seconds

