                                  MODFLOW-ADJOINT Version 0.96 07/14/2007
      U.S. GEOLOGICAL SURVEY MODULAR FINITE-DIFFERENCE GROUND-WATER FLOW MODEL
                             VERSION 1.11 08/08/2013

 LIST FILE: example_strong.lst
                         UNIT  701

 OPENING example_strong.hds
 FILE TYPE:DATA(BINARY)   UNIT  702   STATUS:UNKNOWN
 FORMAT:UNFORMATTED            ACCESS:SEQUENTIAL          

 OPENING example_strong.flw
 FILE TYPE:DATA(BINARY)   UNIT  740   STATUS:UNKNOWN
 FORMAT:UNFORMATTED            ACCESS:SEQUENTIAL          

 OPENING example_strong.hbs
 FILE TYPE:DATA   UNIT  714   STATUS:UNKNOWN
 FORMAT:FORMATTED              ACCESS:SEQUENTIAL          
# Input Files                                                                                                                                                                                                                                                                                               

 OPENING example_strong.dis
 FILE TYPE:DIS   UNIT  707   STATUS:OLD    
 FORMAT:FORMATTED              ACCESS:SEQUENTIAL          

 OPENING example_strong.ba6
 FILE TYPE:BAS6   UNIT  708   STATUS:OLD    
 FORMAT:FORMATTED              ACCESS:SEQUENTIAL          

 OPENING example_strong.lpf
 FILE TYPE:LPF   UNIT  709   STATUS:OLD    
 FORMAT:FORMATTED              ACCESS:SEQUENTIAL          

 OPENING example_strong.zon
 FILE TYPE:ZONE   UNIT  720   STATUS:OLD    
 FORMAT:FORMATTED              ACCESS:SEQUENTIAL          

 OPENING example_strong.oc
 FILE TYPE:OC   UNIT  710   STATUS:OLD    
 FORMAT:FORMATTED              ACCESS:SEQUENTIAL          

 OPENING example_strong.mlt
 FILE TYPE:MULT   UNIT  722   STATUS:OLD    
 FORMAT:FORMATTED              ACCESS:SEQUENTIAL          

 OPENING example_strong.rch
 FILE TYPE:RCH   UNIT  713   STATUS:OLD    
 FORMAT:FORMATTED              ACCESS:SEQUENTIAL          

 OPENING example_strong.wel
 FILE TYPE:WEL   UNIT  712   STATUS:OLD    
 FORMAT:FORMATTED              ACCESS:SEQUENTIAL          

 OPENING example_strong.pcg
 FILE TYPE:PCG   UNIT  711   STATUS:OLD    
 FORMAT:FORMATTED              ACCESS:SEQUENTIAL          

 OPENING example_strong.hob
 FILE TYPE:HOB   UNIT  703   STATUS:OLD    
 FORMAT:FORMATTED              ACCESS:SEQUENTIAL          

 BAS -- BASIC PACKAGE, VERSION 7, 5/2/2005 INPUT READ FROM UNIT  708
 
 MODFLOW was compiled using mixed precision
 Precision of REAL variables:           6
 Precision of DOUBLE PRECISION variables:          15

 DISCRETIZATION INPUT DATA READ FROM UNIT  707
 # MF2K DISCRETIZATION FILE
 #
 #
 # NLAY NROW NCOL NPER TIMEUNITS LENUNITS
    1 LAYERS        50 ROWS        50 COLUMNS
    1 STRESS PERIOD(S) IN SIMULATION
 MODEL TIME UNIT IS DAYS
 MODEL LENGTH UNIT IS METERS
  Confining bed flag for each layer:
   0



                               DELR
 READING ON UNIT  707 WITH FORMAT: (FREE)              



                               DELC
 READING ON UNIT  707 WITH FORMAT: (FREE)              



           TOP ELEVATION OF LAYER 1
 READING ON UNIT  707 WITH FORMAT: (FREE)              



             MODEL LAYER BOTTOM EL. FOR LAYER   1
 READING ON UNIT  707 WITH FORMAT: (FREE)              


 STRESS PERIOD     LENGTH       TIME STEPS     MULTIPLIER FOR DELT    SS FLAG
 ----------------------------------------------------------------------------
        1         1.000000          1                    1.000         SS

 STEADY-STATE SIMULATION



 
 #Example                                                                        
 THE FREE FORMAT OPTION HAS BEEN SELECTED



                     BOUNDARY ARRAY FOR LAYER   1
 READING ON UNIT  708 WITH FORMAT: (FREE)              

 AQUIFER HEAD WILL BE SET TO  -999.00     AT ALL NO-FLOW NODES (IBOUND=0).



                       INITIAL HEAD FOR LAYER   1
 READING ON UNIT  708 WITH FORMAT: (FREE)              

 OUTPUT CONTROL IS SPECIFIED ONLY AT TIME STEPS FOR WHICH OUTPUT IS DESIRED
 COMPACT CELL-BY-CELL BUDGET FILES WILL BE WRITTEN
 AUXILIARY DATA WILL BE SAVED IN CELL-BY-CELL BUDGET FILES
 HEAD PRINT FORMAT CODE IS   0    DRAWDOWN PRINT FORMAT CODE IS   0
 HEADS WILL BE SAVED ON UNIT  702    DRAWDOWNS WILL BE SAVED ON UNIT    0

 ZONE OPTION, INPUT READ FROM UNIT  720
 # Zone (ZONE) File
     1 ZONE ARRAYS

 MULTIPLIER OPTION, INPUT READ FROM UNIT  722
 # Multiplier (MULT)
   1 MULTIPLIER ARRAYS



            MULT. ARRAY: HK_Par    
 READING ON UNIT  722 WITH FORMAT: (FREE)              

            1           2           3           4           5           6           7           8           9          10
           11          12          13          14          15          16          17          18          19          20
           21          22          23          24          25          26          27          28          29          30
           31          32          33          34          35          36          37          38          39          40
           41          42          43          44          45          46          47          48          49          50
 ........................................................................................................................
   1    105.2       112.9       113.6       107.2       96.82       86.09       77.18       70.69       66.42       63.75    
        61.83       59.81       57.20       54.11       51.26       49.53       49.57       51.54       55.19       59.97    
        65.25       70.42       74.89       78.08       79.45       78.77       76.23       72.39       67.92       63.42    
        59.44       56.42       54.71       54.45       55.60       57.83       60.69       63.76       66.79       69.78    
        72.97       76.71       81.33       87.04       93.70       100.7       106.6       109.2       107.0       100.1    
   2    123.2       137.1       137.1       123.4       103.4       85.21       72.27       64.49       60.49       58.67    
        57.61       56.05       53.25       49.37       45.49       42.95       42.60       44.66       48.80       54.39    
        60.73       67.21       73.15       77.64       79.64       78.61       74.93       69.65       63.86       58.32    
        53.58       50.11       48.25       48.18       49.81       52.76       56.39       60.12       63.62       66.94    
        70.44       74.79       80.85       89.34       100.2       112.4       122.7       127.1       123.1       111.5    
   3    155.2       183.5       184.8       156.1       115.9       83.93       65.12       56.64       54.31       54.76    
        55.89       55.92       53.56       48.78       43.33       39.42       38.33       40.27       44.66       50.66    
        57.55       64.86       71.98       77.67       80.34       79.03       74.25       67.63       60.78       54.60    
        49.50       45.85       44.06       44.42       46.82       50.68       55.10       59.23       62.70       65.62    
        68.54       72.55       79.57       91.59       109.1       129.8       147.1       153.2       145.2       126.2    
   4    216.7       285.0       293.0       227.0       142.6       85.84       58.08       47.86       47.35       51.34    
        56.11       59.14       57.74       51.69       43.98       38.15       35.95       37.45       41.92       48.10    
        55.01       62.47       70.00       76.35       79.58       78.24       72.92       65.57       58.12       51.67    
        46.49       42.91       41.50       42.59       46.06       51.16       56.53       60.92       63.83       65.54    
        66.74       69.58       77.60       94.22       121.4       155.9       185.1       193.4       176.7       145.3    
   5    323.5       483.4       510.6       365.1       190.0       91.17       52.36       40.30       40.66       47.88    
        57.09       63.98       64.16       56.90       46.40       38.26       34.91       35.90       40.14       46.08    
        52.39       58.91       65.59       71.68       75.24       74.13       69.12       62.22       55.14       48.95    
        44.03       40.85       40.05       42.06       46.90       53.56       59.99       64.51       66.47       66.25    
        65.10       66.56       75.17       96.40       135.9       189.8       235.9       246.9       217.1       167.7    
   6    456.1       757.4       833.0       575.2       255.0       95.80       47.48       34.74       35.55       44.50    
        57.21       67.60       69.98       62.45       49.31       38.90       34.85       35.54       39.35       44.53    
        49.50       54.02       58.62       63.27       66.75       66.11       62.43       57.14       51.45       46.17    
        41.93       39.40       39.28       42.24       48.65       57.08       64.46       68.94       69.89       67.66    
        64.37       64.29       72.34       96.17       148.6       224.0       286.4       298.3       254.8       187.5    
   7    514.6       890.3       1008.       712.8       300.1       92.35       43.82       31.68       32.66       41.89    
        55.66       67.54       71.75       65.79       51.78       40.15       36.38       37.01       40.23       44.18    
        47.17       49.17       51.04       53.11       55.19       55.89       54.40       51.41       47.65       43.77    
        40.51       38.77       39.38       43.14       51.15       61.02       68.86       73.34       73.77       70.36    
        65.63       64.09       70.43       92.20       150.9       237.3       303.8       315.8       268.0       194.3    
   8    430.2       705.9       775.1       537.2       239.1       89.10       43.47       31.41       32.04       40.33    
        52.47       63.18       67.42       62.98       52.79       44.12       40.67       41.08       43.47       45.79    
        46.52       46.11       45.68       45.66       46.09       47.46       47.70       46.65       44.67       42.24    
        40.06       39.18       40.59       45.20       53.51       63.44       71.97       77.10       78.05       74.97    
        69.88       67.34       72.22       91.28       135.9       204.8       265.4       281.5       244.8       182.9    
   9    294.3       430.1       451.3       322.5       167.0       78.54       43.73       32.86       32.99       39.43    
        48.41       56.72       60.81       59.28       54.16       49.45       47.48       47.92       49.28       49.67    
        48.16       45.73       43.59       42.31       42.10       42.97       43.73       43.77       43.03       41.73    
        40.49       40.33       42.30       47.23       55.28       65.06       74.16       80.50       83.03       81.73    
        77.43       74.07       76.62       89.85       118.8       162.9       205.2       221.0       200.6       159.4    
  10    196.5       251.5       254.6       194.4       119.1       68.66       44.12       35.02       34.44       38.40    
        44.30       50.52       55.07       56.90       56.76       56.31       56.61       57.40       57.45       55.62    
        52.08       47.98       44.49       42.23       41.34       41.62       42.32       42.79       42.70       42.07    
        41.46       41.74       43.91       48.81       56.62       66.45       76.42       84.50       89.41       90.67    
        88.06       83.99       83.12       89.25       104.7       128.7       153.2       165.0       157.1       134.4    
  11    146.0       168.8       165.8       134.9       94.35       62.98       44.91       36.87       35.00       36.74    
        40.72       45.90       51.42       56.63       61.25       65.18       68.04       69.00       67.25       63.04    
        57.57       52.01       47.29       44.01       42.35       42.07       42.56       43.13       43.28       42.95    
        42.58       42.94       45.03       49.86       57.88       68.56       80.29       90.95       98.81       102.6    
        101.6       96.98       92.14       90.83       95.16       105.0       117.0       125.0       124.0       113.5    
  12    125.5       139.1       135.3       113.7       85.21       60.99       45.21       36.89       33.91       34.57    
        37.82       43.08       50.15       58.86       68.34       76.69       81.61       81.83       77.79       71.07    
        63.48       56.27       50.18       45.78       43.34       42.69       43.21       44.03       44.41       44.16    
        43.59       43.58       45.47       50.66       60.04       73.35       88.71       103.3       114.4       120.2    
        119.9       113.9       104.7       95.85       90.32       89.76       93.43       98.34       100.4       97.32    
  13    121.2       134.9       133.1       113.3       84.79       59.84       43.52       34.93       31.73       32.18    
        35.44       41.38       50.46       63.04       77.87       90.90       97.28       95.50       88.15       78.50    
        68.57       59.43       51.86       46.48       43.51       42.79       43.68       45.15       46.04       45.68    
        44.44       43.58       45.31       52.00       65.34       85.07       107.6       127.7       142.2       149.5    
        149.1       140.8       126.0       107.5       90.67       80.00       76.59       78.70       82.56       84.55    
  14    126.9       145.9       146.3       122.6       87.57       58.15       40.30       31.68       28.98       29.92    
        33.47       40.03       50.78       66.86       87.05       105.0       112.7       108.3       96.74       83.91    
        72.04       61.63       53.33       47.50       44.32       43.80       45.14       47.19       48.49       47.74    
        45.18       43.28       45.56       55.43       76.32       108.9       145.9       175.4       192.3       199.5    
        199.4       189.7       165.9       131.0       97.18       74.45       64.04       63.11       67.95       74.06    
  15    137.7       164.3       166.2       135.3       90.20       55.13       36.30       28.28       26.40       28.08    
        31.97       38.59       49.64       67.30       91.22       112.6       121.1       115.1       100.9       86.31    
        74.15       64.40       56.89       51.41       48.27       48.08       49.66       51.66       52.57       50.76    
        46.50       43.79       47.01       61.27       94.25       149.1       210.6       254.6       272.0       276.4    
        278.2       268.9       231.6       170.5       110.5       72.32       55.37       51.88       56.70       65.55    
  16    146.6       178.8       181.5       144.3       89.86       50.39       32.29       25.61       24.76       27.12    
        31.18       37.08       46.62       62.57       86.76       108.2       116.8       111.5       98.55       85.50    
        75.83       69.32       64.82       61.33       58.43       58.46       59.25       59.94       59.23       55.44    
        49.39       45.83       49.58       68.01       116.9       201.8       290.9       347.3       362.3       362.3    
        368.4       363.1       314.6       223.8       129.0       72.05       49.98       45.09       49.63       59.72    
  17    145.9       176.6       177.4       139.6       83.44       44.42       29.34       24.36       24.56       27.57    
        31.57       36.29       43.15       54.27       73.14       92.40       101.0       98.86       90.62       82.33    
        77.71       76.86       78.40       80.57       80.86       77.91       75.10       72.35       68.65       62.28    
        54.46       49.87       53.30       72.62       134.4       237.1       333.1       389.8       401.9       400.9    
        412.5       414.1       366.3       264.9       145.7       71.76       48.16       42.77       47.03       57.35    
  18    133.3       154.4       149.1       114.0       70.09       41.23       28.70       24.98       26.10       29.74    
        33.65       37.34       42.03       49.25       60.13       73.94       82.64       84.09       81.09       78.41    
        79.67       85.67       95.06       104.8       109.6       103.4       94.84       87.01       79.57       70.92    
        61.67       56.05       58.86       77.30       125.9       205.5       286.0       336.1       350.8       355.2    
        369.0       372.9       331.1       240.0       139.3       76.22       51.35       45.12       48.89       58.65    
  19    114.8       124.6       115.7       88.88       59.15       39.16       29.75       27.33       29.32       33.54    
        37.54       40.69       44.03       48.75       55.61       64.09       70.52       73.08       73.44       75.05    
        81.15       93.15       109.4       124.8       131.3       124.5       112.0       99.94       89.55       79.88    
        69.99       63.25       64.02       76.73       106.8       154.0       203.9       239.3       255.6       265.5    
        277.2       280.0       251.3       190.3       123.7       78.53       57.33       51.39       54.72       63.11    
  20    97.65       98.99       89.53       71.01       51.83       38.55       32.12       31.08       33.78       38.32    
        42.78       46.21       49.19       52.70       57.15       61.92       65.34       66.96       68.50       72.54    
        81.68       97.36       117.4       135.2       142.0       135.3       121.6       107.8       96.49       87.06    
        77.74       70.18       68.02       73.95       89.49       113.4       139.6       161.0       176.0       187.5    
        195.8       196.5       180.5       146.8       108.6       80.12       65.08       60.85       63.71       69.67    
  21    84.94       81.40       72.51       59.97       47.85       39.42       35.54       35.62       38.58       43.17    
        48.28       52.93       56.86       60.33       63.16       64.62       64.37       63.61       64.71       69.99    
        81.16       98.62       119.5       136.6       142.5       136.0       123.1       110.3       99.83       91.18    
        83.04       75.71       71.30       71.90       78.12       88.99       102.0       115.1       127.1       137.1    
        142.9       142.5       133.8       117.2       98.01       82.79       74.56       72.68       74.52       77.31    
  22    76.32       70.55       62.55       53.81       46.29       41.34       39.34       40.04       42.94       47.43    
        52.98       59.11       65.14       69.75       71.14       68.47       63.36       59.27       59.45       65.97    
        79.63       99.12       119.7       134.3       137.7       131.1       119.9       109.0       99.89       92.20    
        85.09       78.58       73.65       71.49       72.65       76.97       83.65       91.66       99.93       107.0    
        111.2       111.1       106.6       99.53       92.38       87.48       85.52       85.64       86.15       85.65    
  23    70.22       63.37       56.41       50.39       46.03       43.59       42.99       44.06       46.69       50.79    
        56.47       63.89       72.05       77.57       76.33       67.89       57.21       50.54       51.36       60.95    
        79.19       102.3       122.7       133.4       132.5       124.2       113.7       104.5       96.91       90.43    
        84.49       79.02       74.48       71.56       70.70       71.95       74.96       79.19       83.90       88.00    
        90.25       90.07       88.74       88.42       90.43       94.49       98.60       100.5       99.10       94.61    
  24    65.57       58.08       52.07       48.16       46.31       45.99       46.60       47.85       49.90       53.25    
        58.73       66.92       75.80       80.01       74.07       59.35       45.54       39.46       42.88       57.39    
        83.21       113.0       132.9       136.1       127.9       116.0       105.0       96.88       91.07       86.25    
        81.72       77.50       73.83       71.09       69.56       69.23       69.94       71.38       73.08       74.25    
        73.99       73.07       74.02       79.23       89.70       103.5       115.1       118.7       113.8       103.9    
  25    61.94       54.11       48.92       46.69       46.97       48.58       50.25       51.53       52.80       55.10    
        59.92       67.56       75.02       76.08       65.27       47.06       34.09       30.39       37.02       58.22    
        95.81       134.5       151.2       142.0       123.1       106.2       94.46       87.23       83.06       80.06    
        77.11       74.16       71.46       69.25       67.68       66.56       65.82       65.31       64.64       63.15    
        60.53       58.74       60.81       69.69       87.71       112.0       131.9       137.5       128.2       112.1    
  26    59.33       51.38       46.84       45.90       48.05       51.46       53.99       55.17       55.62       56.79    
        60.38       66.23       71.00       68.72       55.13       36.98       26.76       25.64       35.83       67.17    
        122.2       167.2       173.4       147.7       116.7       95.18       83.05       76.83       74.04       72.57    
        71.04       69.21       67.34       65.68       64.37       62.97       61.51       59.85       57.62       54.17    
        49.91       47.24       49.03       58.95       82.17       115.0       141.2       148.3       136.3       116.2    
  27    57.80       49.93       45.94       45.93       49.68       54.59       57.70       58.79       58.61       58.80    
        60.96       64.68       66.73       62.25       47.85       32.36       25.42       27.04       41.81       91.68    
        162.4       199.2       186.3       146.2       107.6       83.59       72.16       66.92       65.08       64.62    
        64.07       63.08       61.85       60.57       59.47       58.36       56.90       54.90       52.00       47.59    
        42.43       38.96       39.64       47.69       71.36       105.8       132.6       141.3       131.4       113.2    
  28    57.27       49.69       46.34       47.28       51.73       57.24       61.05       62.39       62.02       61.62    
        62.65       64.79       65.22       60.12       48.25       36.90       32.50       38.18       61.79       118.7    
        183.0       204.6       176.4       130.7       94.71       73.62       63.02       58.33       56.92       56.90    
        56.90       56.51       55.81       54.93       54.08       53.46       52.49       50.81       47.98       43.49    
        38.04       33.98       33.62       39.50       55.56       80.93       104.9       116.8       113.9       103.1    
  29    57.38       50.19       47.44       49.07       54.02       59.99       64.39       66.20       66.06       65.58    
        66.08       67.51       67.88       64.64       57.23       49.70       48.57       59.23       89.05       140.8    
        185.4       188.1       153.5       111.8       82.32       64.99       55.59       51.20       49.83       49.85    
        50.12       50.22       50.07       49.77       49.49       49.33       48.96       47.91       45.64       41.66    
        36.32       31.73       30.06       32.98       42.17       57.66       75.04       87.54       91.53       89.75    
  30    57.59       50.81       48.60       50.88       56.48       63.10       68.17       70.57       70.96       70.78    
        71.24       72.60       73.95       73.66       71.32       69.05       72.27       86.96       116.8       154.8    
        176.9       165.7       131.8       97.72       73.80       58.68       49.86       45.43       43.80       43.67    
        44.13       44.67       45.09       45.38       45.68       46.07       46.35       46.11       44.73       41.60    
        36.78       31.75       28.61       28.74       32.94       41.32       52.45       63.38       71.64       76.94    
  31    57.37       50.93       49.31       52.42       59.09       66.85       72.92       76.09       77.06       77.20    
        77.72       79.24       81.66       84.16       86.40       89.75       97.37       112.8       136.2       158.5    
        164.5       147.8       118.9       91.12       69.63       54.82       45.67       40.76       38.72       38.43    
        39.08       40.05       40.95       41.70       42.43       43.28       44.22       44.90       44.67       42.74    
        38.81       33.72       29.23       26.91       27.49       31.18       37.81       46.71       56.72       66.36    
  32    56.40       50.09       49.12       53.52       62.10       72.00       79.72       83.74       84.93       84.99    
        85.32       86.80       89.62       93.52       98.33       104.6       114.0       127.5       143.4       155.2    
        154.9       140.2       116.4       90.95       69.06       52.94       42.61       36.93       34.53       34.22    
        35.09       36.39       37.62       38.57       39.40       40.42       41.83       43.45       44.65       44.42    
        41.92       37.28       31.85       27.34       24.96       25.34       28.87       35.83       45.94       57.91    
  33    54.55       48.04       47.67       53.94       65.97       80.05       90.59       95.10       95.58       94.81    
        94.48       95.48       97.96       101.5       105.9       111.6       119.6       130.1       141.5       149.7    
        149.9       139.6       119.8       94.89       70.83       52.21       40.26       33.84       31.27       31.11    
        32.25       33.84       35.17       35.90       36.29       36.98       38.49       40.95       43.78       45.84    
        45.74       42.60       36.76       29.96       24.51       21.96       23.03       28.20       37.80       51.03    
  34    51.79       44.84       45.11       53.64       70.41       91.08       106.7       112.1       110.3       107.5    
        106.0       106.3       107.5       108.9       110.4       113.0       117.9       125.5       134.6       142.3    
        145.2       140.3       124.4       99.55       72.92       51.65       38.29       31.44       28.96       29.16    
        30.72       32.56       33.73       33.77       33.17       33.04       34.22       37.13       41.53       46.31    
        49.83       49.81       44.13       34.40       25.24       19.81       18.84       22.47       31.36       45.37    
  35    48.87       41.44       41.98       52.27       74.27       103.2       125.6       132.9       128.6       122.6    
        119.7       118.8       117.9       115.9       112.9       110.8       111.9       116.8       124.5       132.6    
        138.6       138.0       125.6       101.5       73.41       50.34       36.46       29.79       27.75       28.50    
        30.61       32.67       33.49       32.55       30.59       29.37       29.91       32.83       38.25       45.53    
        53.18       57.18       52.23       39.50       26.26       18.15       15.78       18.38       26.53       40.91    
  36    47.06       39.02       39.01       49.55       75.83       112.2       140.6       150.2       145.0       136.9    
        132.7       130.7       127.6       121.7       113.2       105.9       103.9       106.8       113.5       121.8    
        129.1       130.6       120.6       98.56       71.06       47.86       34.90       29.13       27.81       29.25    
        31.93       34.15       34.51       32.49       28.99       26.56       26.40       29.09       34.85       43.58    
        54.09       61.21       57.54       43.06       26.59       16.52       13.63       15.85       23.58       38.03    
  37    47.59       38.87       37.61       46.02       72.72       111.5       141.3       153.7       151.0       144.2    
        140.4       137.9       133.1       124.3       110.9       99.82       96.32       98.14       103.7       111.2    
        117.6       118.6       109.6       90.11       64.98       44.75       34.27       29.84       29.37       31.47    
        34.56       36.74       36.53       33.48       28.47       24.88       24.27       26.60       32.05       40.65    
        51.27       58.74       55.85       42.27       25.32       14.98       12.61       14.98       22.71       37.23    
  38    51.34       42.19       39.80       46.17       65.21       95.60       123.7       139.5       142.5       140.5    
        139.2       137.2       131.5       120.8       107.0       96.19       91.61       92.33       96.61       102.3    
        106.5       105.6       96.38       79.03       58.93       44.06       35.70       32.37       32.57       35.01    
        38.08       39.89       38.89       34.79       29.13       25.04       23.74       25.39       29.92       36.97    
        45.18       50.30       46.97       35.54       22.69       15.15       13.32       16.05       24.13       38.74    
  39    58.52       49.23       45.19       48.19       59.84       79.45       100.7       116.6       124.7       128.3    
        130.4       129.9       124.9       115.3       103.6       94.26       89.61       89.48       92.38       95.99    
        97.77       95.34       86.62       72.56       57.46       45.99       39.31       36.76       37.26       39.44    
        41.78       42.60       40.45       35.41       29.46       25.18       23.52       24.54       27.95       32.95    
        38.06       40.57       37.48       29.64       21.41       16.53       15.77       19.26       27.99       42.45    
  40    68.67       59.93       53.56       52.20       57.03       67.74       81.71       95.21       105.9       113.5    
        118.3       119.6       116.5       109.4       100.7       93.32       89.28       88.71       90.35       92.17    
        92.32       89.15       81.64       70.69       59.24       50.24       44.80       42.70       42.93       44.11    
        44.98       44.13       40.50       34.63       28.61       24.41       22.70       23.38       25.93       29.35    
        32.36       33.47       31.46       26.94       22.31       19.78       20.43       25.03       34.33       47.92    
  41    81.38       74.53       65.46       58.75       57.02       60.76       68.97       79.81       91.09       100.6    
        107.1       109.7       108.5       104.0       97.96       92.61       89.45       88.69       89.37       90.13    
        89.63       86.61       80.52       72.08       63.25       56.05       51.46       49.31       48.68       48.41    
        47.34       44.29       38.91       32.35       26.51       22.76       21.40       22.16       24.42       27.28    
        29.67       30.68       29.99       28.10       26.25       25.89       28.13       33.75       42.85       54.62    
  42    99.98       96.79       84.53       70.52       61.11       58.43       62.07       70.47       81.16       91.27    
        98.66       102.4       102.5       99.62       95.31       91.30       88.81       88.07       88.48       89.05    
        88.71       86.48       81.83       75.26       68.21       62.18       57.94       55.40       53.79       52.01    
        48.80       43.38       36.32       29.36       24.11       21.25       20.70       22.06       24.79       28.09    
        31.06       33.00       33.82       34.02       34.49       36.10       39.61       45.39       53.22       62.38    
  43    139.2       146.5       129.3       100.1       75.50       62.32       59.65       65.01       75.06       85.59    
        93.90       98.67       99.63       97.22       92.94       88.88       86.55       86.25       87.20       88.34    
        88.74       87.58       84.30       79.02       72.87       67.28       63.15       60.38       58.06       54.83    
        49.47       41.83       33.70       27.21       23.27       21.88       22.67       25.27       29.25       33.87    
        38.28       41.87       44.54       46.66       48.85       51.67       55.48       60.29       65.72       71.28    
  44    240.1       293.3       267.1       187.0       116.4       78.12       63.40       62.98       71.60       83.45    
        93.30       99.44       100.8       97.46       91.61       86.18       83.24       83.25       85.24       87.64    
        89.33       89.51       87.32       82.70       76.78       71.21       67.07       64.22       61.43       56.93    
        49.48       40.40       32.59       27.68       26.01       27.31       30.87       35.95       42.05       48.73    
        55.31       61.01       65.50       68.94       71.73       74.31       76.84       79.11       80.76       81.59    
  45    502.1       741.7       702.6       445.4       221.4       114.6       75.70       66.28       71.75       84.76    
        97.01       104.7       106.0       100.9       92.02       84.06       79.96       79.96       82.89       86.84    
        90.12       91.66       90.39       86.12       80.01       74.14       69.98       67.16       64.08       58.53    
        49.68       40.52       34.20       32.10       34.83       42.25       52.16       62.34       71.56       80.40    
        89.02       96.40       101.6       104.5       105.5       105.3       104.4       102.4       98.65       93.44    
  46    1049.       1846.       1844.       1115.       456.9       178.1       96.57       75.46       77.05       90.08    
        104.6       113.6       114.7       107.3       94.29       82.91       77.52       77.40       80.90       86.01    
        90.64       93.28       92.83       88.91       82.41       76.13       72.14       69.56       66.41       60.25    
        51.16       43.00       39.07       41.69       53.84       75.70       98.68       117.0       128.8       137.4    
        145.6       152.3       155.3       154.2       149.7       143.8       137.4       129.3       118.8       106.4    
  47    1566.       3043.       3218.       2032.       798.4       244.6       122.2       89.95       87.46       99.24    
        114.0       122.9       123.3       114.6       97.71       82.86       76.74       76.35       79.89       85.34    
        90.48       93.59       93.68       90.31       83.67       77.36       73.95       71.79       68.85       62.81    
        54.50       48.12       47.41       56.59       87.53       132.9       172.3       197.9       208.2       211.5    
        215.3       217.7       215.2       207.1       194.7       181.8       169.4       155.2       137.8       118.1    
  48    1279.       2424.       2610.       1711.       746.4       285.9       147.2       106.6       100.2       109.1    
        120.6       126.8       125.3       115.1       99.17       85.15       78.14       77.07       80.01       84.84    
        89.40       92.16       92.14       89.02       83.66       78.75       75.87       74.10       71.62       66.47    
        59.64       55.53       58.77       75.62       116.5       173.9       225.3       254.2       260.7       258.9    
        258.4       256.2       248.7       235.4       218.8       202.5       186.8       169.3       148.2       124.5    
  49    650.1       1084.       1173.       854.8       469.6       245.2       150.6       116.1       109.0       114.1    
        120.0       122.6       119.5       110.4       97.66       86.45       80.13       78.72       80.81       84.37    
        87.64       89.59       89.40       86.93       83.15       79.73       77.64       76.38       74.55       70.77    
        65.69       63.55       69.07       87.60       124.2       173.2       216.5       239.7       244.1       243.2    
        242.8       239.9       232.4       220.4       206.3       192.6       179.1       163.6       144.5       122.4    
  50    291.4       404.2       433.4       360.2       254.3       175.8       132.3       113.3       108.9       110.3    
        111.5       111.5       108.6       102.2       93.69       86.07       81.49       80.33       81.59       83.72    
        85.62       86.72       86.49       84.84       82.46       80.37       79.13       78.41       77.24       74.80    
        71.56       70.52       75.58       89.96       114.6       144.4       169.0       181.7       185.5       187.2    
        188.1       186.9       182.6       175.6       167.4       159.4       151.2       141.3       128.3       112.5    



             ZONE ARRAY: HK_Par_Z1 
 READING ON UNIT  720 WITH FORMAT: (FREE)              

 LPF -- LAYER-PROPERTY FLOW PACKAGE, VERSION 7, 5/2/2005
         INPUT READ FROM UNIT  709
 # LPF: Layer Property Flow package file
 CELL-BY-CELL FLOWS WILL BE SAVED ON UNIT  740
 HEAD AT CELLS THAT CONVERT TO DRY=  -888.00    
     1 Named Parameters     

   LAYER FLAGS:
 LAYER       LAYTYP        LAYAVG         CHANI        LAYVKA        LAYWET
 ---------------------------------------------------------------------------
    1             0             0     1.000E+00             1             0

   INTERPRETATION OF LAYER FLAGS:
                        INTERBLOCK     HORIZONTAL    DATA IN
         LAYER TYPE   TRANSMISSIVITY   ANISOTROPY   ARRAY VKA   WETTABILITY
 LAYER      (LAYTYP)      (LAYAVG)       (CHANI)      (LAYVKA)      (LAYWET)
 ---------------------------------------------------------------------------
    1      CONFINED      HARMONIC     1.000E+00    ANISOTROPY  NON-WETTABLE

 WETTING CAPABILITY IS NOT ACTIVE IN ANY LAYER

 PARAMETERS DEFINED IN THE LPF PACKAGE

 PARAMETER NAME:HK_Par       TYPE:HK     CLUSTERS:   1
 Parameter value from package file is:    1.0000    
                LAYER:   1    MULTIPLIER ARRAY: HK_Par    ZONE ARRAY: HK_Par_Z1
                ZONE VALUES:    1

    HYD. COND. ALONG ROWS FOR LAYER   1 WILL BE DEFINED BY PARAMETERS
 (PRINT FLAG=  -1)

    HYD. COND. ALONG ROWS is defined by the following parameters:
 HK_Par    


              HYD. COND. ALONG ROWS FOR LAYER   1

  HORIZ. TO VERTICAL ANI. =   1.00000     FOR LAYER   1

 WEL -- WELL PACKAGE, VERSION 7, 5/2/2005 INPUT READ FROM UNIT  712
 No named parameters
 MAXIMUM OF      1 ACTIVE WELLS AT ONE TIME
 CELL-BY-CELL FLOWS WILL BE SAVED ON UNIT  740


     0 Well parameters

 RCH -- RECHARGE PACKAGE, VERSION 7, 5/2/2005 INPUT READ FROM UNIT  713
 No named parameters
 OPTION 3 -- RECHARGE TO HIGHEST ACTIVE NODE IN EACH VERTICAL COLUMN
 CELL-BY-CELL FLOWS WILL BE SAVED ON UNIT  740


     0 Recharge parameters

 PCG -- CONJUGATE-GRADIENT SOLUTION PACKAGE, VERSION 7, 5/2/2005
 MAXIMUM OF     25 CALLS OF SOLUTION ROUTINE
 MAXIMUM OF     50 INTERNAL ITERATIONS PER CALL TO SOLUTION ROUTINE
 MATRIX PRECONDITIONING TYPE :    1



                                    SOLUTION BY THE CONJUGATE-GRADIENT METHOD
                                   -------------------------------------------
                    MAXIMUM NUMBER OF CALLS TO PCG ROUTINE =       25
                        MAXIMUM ITERATIONS PER CALL TO PCG =       50
                               MATRIX PRECONDITIONING TYPE =        1
        RELAXATION FACTOR (ONLY USED WITH PRECOND. TYPE 1) =    0.10000E+01
 PARAMETER OF POLYNOMIAL PRECOND. = 2 (2) OR IS CALCULATED :        0
                         HEAD CHANGE CRITERION FOR CLOSURE =    0.10000E-03
                     RESIDUAL CHANGE CRITERION FOR CLOSURE =    0.10000E-02
            PCG HEAD AND RESIDUAL CHANGE PRINTOUT INTERVAL =      999
     PRINTING FROM SOLVER IS LIMITED(1) OR SUPPRESSED (>1) =        2
                            STEADY-STATE DAMPING PARAMETER =    0.10000E+01
                               TRANSIENT DAMPING PARAMETER =    0.10000E+01

 OBS2BAS7 -- HEAD OBSERVATIONS, VERSION 2.0, 2/28/2006
 INPUT READ FROM UNIT 703

 NUMBER OF HEADS....................................:   25
   NUMBER OF MULTILAYER HEADS.......................:    0
   MAXIMUM NUMBER OF LAYERS FOR MULTILAYER HEADS....:    0
 HEAD OBSERVATIONS WILL BE SAVED ON UNIT............:  714
 SIMULATED EQUIVALENT HEAD AT DRY CELLS WILL BE:   -777.000    

 OBSERVED HEAD DATA -- TIME OFFSETS ARE MULTIPLIED BY:   1.0000    

                    REFER.
       OBSERVATION  STRESS    TIME
  OBS#    NAME      PERIOD   OFFSET    OBSERVATION
     1 hed1             1    0.000       2.143    
 Observation within a steady-state time step has been moved to the end of the time step.
     2 hed2             1    0.000       25.92    
 Observation within a steady-state time step has been moved to the end of the time step.
     3 hed3             1    0.000       34.21    
 Observation within a steady-state time step has been moved to the end of the time step.
     4 hed4             1    0.000       27.14    
 Observation within a steady-state time step has been moved to the end of the time step.
     5 hed5             1    0.000       11.04    
 Observation within a steady-state time step has been moved to the end of the time step.
     6 hed6             1    0.000       4.520    
 Observation within a steady-state time step has been moved to the end of the time step.
     7 hed7             1    0.000       24.70    
 Observation within a steady-state time step has been moved to the end of the time step.
     8 hed8             1    0.000       26.57    
 Observation within a steady-state time step has been moved to the end of the time step.
     9 hed9             1    0.000       23.50    
 Observation within a steady-state time step has been moved to the end of the time step.
    10 hed10            1    0.000       17.59    
 Observation within a steady-state time step has been moved to the end of the time step.
    11 hed11            1    0.000       9.226    
 Observation within a steady-state time step has been moved to the end of the time step.
    12 hed12            1    0.000       17.12    
 Observation within a steady-state time step has been moved to the end of the time step.
    13 hed13            1    0.000       17.64    
 Observation within a steady-state time step has been moved to the end of the time step.
    14 hed14            1    0.000       26.29    
 Observation within a steady-state time step has been moved to the end of the time step.
    15 hed15            1    0.000       13.62    
 Observation within a steady-state time step has been moved to the end of the time step.
    16 hed16            1    0.000       10.13    
 Observation within a steady-state time step has been moved to the end of the time step.
    17 hed17            1    0.000       18.29    
 Observation within a steady-state time step has been moved to the end of the time step.
    18 hed18            1    0.000       23.90    
 Observation within a steady-state time step has been moved to the end of the time step.
    19 hed19            1    0.000       30.50    
 Observation within a steady-state time step has been moved to the end of the time step.
    20 hed20            1    0.000       21.24    
 Observation within a steady-state time step has been moved to the end of the time step.
    21 hed21            1    0.000       1.227    
 Observation within a steady-state time step has been moved to the end of the time step.
    22 hed22            1    0.000       18.32    
 Observation within a steady-state time step has been moved to the end of the time step.
    23 hed23            1    0.000       27.35    
 Observation within a steady-state time step has been moved to the end of the time step.
    24 hed24            1    0.000       24.22    
 Observation within a steady-state time step has been moved to the end of the time step.
    25 hed25            1    0.000       14.56    
 Observation within a steady-state time step has been moved to the end of the time step.

                                                     HEAD CHANGE
                                                      REFERENCE
        OBSERVATION                   ROW     COL    OBSERVATION
  OBS#     NAME       LAY  ROW  COL  OFFSET  OFFSET   (IF > 0)
     1  hed1            1    7    5   0.000   0.000        0
     2  hed2            1    7   15   0.000   0.000        0
     3  hed3            1    7   25   0.000   0.000        0
     4  hed4            1    7   35   0.000   0.000        0
     5  hed5            1    7   45   0.000   0.000        0
     6  hed6            1   17    5   0.000   0.000        0
     7  hed7            1   17   15   0.000   0.000        0
     8  hed8            1   17   25   0.000   0.000        0
     9  hed9            1   17   35   0.000   0.000        0
    10  hed10           1   17   45   0.000   0.000        0
    11  hed11           1   27    5   0.000   0.000        0
    12  hed12           1   27   15   0.000   0.000        0
    13  hed13           1   27   25   0.000   0.000        0
    14  hed14           1   27   35   0.000   0.000        0
    15  hed15           1   27   45   0.000   0.000        0
    16  hed16           1   37    5   0.000   0.000        0
    17  hed17           1   37   15   0.000   0.000        0
    18  hed18           1   37   25   0.000   0.000        0
    19  hed19           1   37   35   0.000   0.000        0
    20  hed20           1   37   45   0.000   0.000        0
    21  hed21           1   47    5   0.000   0.000        0
    22  hed22           1   47   15   0.000   0.000        0
    23  hed23           1   47   25   0.000   0.000        0
    24  hed24           1   47   35   0.000   0.000        0
    25  hed25           1   47   45   0.000   0.000        0
1
                            STRESS PERIOD NO.    1, LENGTH =   1.000000    
                            -----------------------------------------------

                              NUMBER OF TIME STEPS =     1

                               MULTIPLIER FOR DELT =     1.000

                            INITIAL TIME STEP SIZE =   1.000000    

 WELL NO.  LAYER   ROW   COL   STRESS RATE         
 --------------------------------------------------
      1      1     27     20      -4994.    

      1 WELL 



                           RECHARGE
 READING ON UNIT  713 WITH FORMAT: (FREE)              
 
 SOLVING FOR HEAD 

 OUTPUT CONTROL FOR STRESS PERIOD    1   TIME STEP    1
    PRINT BUDGET
    SAVE HEAD FOR ALL LAYERS
    SAVE BUDGET
 UBDSV2 SAVING "   CONSTANT HEAD" ON UNIT 740 AT TIME STEP  1, STRESS PERIOD   1
 UBDSV1 SAVING "FLOW RIGHT FACE " ON UNIT 740 AT TIME STEP  1, STRESS PERIOD   1
 UBDSV1 SAVING "FLOW FRONT FACE " ON UNIT 740 AT TIME STEP  1, STRESS PERIOD   1
 UBDSV4 SAVING "           WELLS" ON UNIT 740 AT TIME STEP  1, STRESS PERIOD   1
 UBDSV3 SAVING "        RECHARGE" ON UNIT 740 AT TIME STEP  1, STRESS PERIOD   1

 HEAD WILL BE SAVED ON UNIT  702 AT END OF TIME STEP    1, STRESS PERIOD    1
1
  VOLUMETRIC BUDGET FOR ENTIRE MODEL AT END OF TIME STEP    1, STRESS PERIOD   1
  ------------------------------------------------------------------------------

     CUMULATIVE VOLUMES      L**3       RATES FOR THIS TIME STEP      L**3/T
     ------------------                 ------------------------

           IN:                                      IN:
           ---                                      ---
             STORAGE =           0.0000               STORAGE =           0.0000
       CONSTANT HEAD =           0.0000         CONSTANT HEAD =           0.0000
               WELLS =           0.0000                 WELLS =           0.0000
            RECHARGE =       23855.9980              RECHARGE =       23855.9980

            TOTAL IN =       23855.9980              TOTAL IN =       23855.9980

          OUT:                                     OUT:
          ----                                     ----
             STORAGE =           0.0000               STORAGE =           0.0000
       CONSTANT HEAD =       18862.0820         CONSTANT HEAD =       18862.0820
               WELLS =        4993.9199                 WELLS =        4993.9199
            RECHARGE =           0.0000              RECHARGE =           0.0000

           TOTAL OUT =       23856.0020             TOTAL OUT =       23856.0020

            IN - OUT =      -3.9062E-03              IN - OUT =      -3.9062E-03

 PERCENT DISCREPANCY =           0.00     PERCENT DISCREPANCY =           0.00






         TIME SUMMARY AT END OF TIME STEP    1 IN STRESS PERIOD    1
                    SECONDS     MINUTES      HOURS       DAYS        YEARS
                    -----------------------------------------------------------
   TIME STEP LENGTH  86400.      1440.0      24.000      1.0000     2.73785E-03
 STRESS PERIOD TIME  86400.      1440.0      24.000      1.0000     2.73785E-03
         TOTAL TIME  86400.      1440.0      24.000      1.0000     2.73785E-03
1

 HEAD AND DRAWDOWN OBSERVATIONS
 OBSERVATION       OBSERVED           SIMULATED
   NAME              VALUE              VALUE             DIFFERENCE
 --------------------------------------------------------------------
 hed1            2.1427335739        2.1431128979      -3.79323959351E-04
 hed2            25.922185898        25.924013138      -1.82723999023E-03
 hed3            34.206703186        34.208644867      -1.94168090820E-03
 hed4            27.136491776        27.137630463      -1.13868713379E-03
 hed5            11.037768364        11.037933350      -1.64985656738E-04
 hed6            4.5201377869        4.5206985474      -5.60760498047E-04
 hed7            24.695287704        24.698549271      -3.26156616211E-03
 hed8            26.565475464        26.568632126      -3.15666198730E-03
 hed9            23.496534348        23.498022079      -1.48773193359E-03
 hed10           17.585252762        17.584060669       1.19209289551E-03
 hed11           9.2263069153        9.2295446396      -3.23772430420E-03
 hed12           17.117977142        17.124975204      -6.99806213379E-03
 hed13           17.640064240        17.645534515      -5.47027587891E-03
 hed14           26.291742325        26.288957596       2.78472900391E-03
 hed15           13.621591568        13.619829178       1.76239013672E-03
 hed16           10.129151344        10.136696815      -7.54547119141E-03
 hed17           18.289443970        18.304283142      -1.48391723633E-02
 hed18           23.900678635        23.912412643      -1.17340087891E-02
 hed19           30.499807358        30.473272324       2.65350341797E-02
 hed20           21.235864639        21.213472366       2.23922729492E-02
 hed21           1.2266690731        1.2516586781      -2.49896049500E-02
 hed22           18.316692352        18.347005844      -3.03134918213E-02
 hed23           27.349287033        27.370927811      -2.16407775879E-02
 hed24           24.222803116        24.257598877      -3.47957611084E-02
 hed25           14.563868523        14.564794540      -9.26017761230E-04

 HEAD/DRAWDOWN SUM OF SQUARED DIFFERENCE:    4.97703E-03

 Run end date and time (yyyy/mm/dd hh:mm:ss): 2018/11/20  9:22:06
 Elapsed run time:  0.036 Seconds

