                                  MODFLOW-ADJOINT Version 0.96 07/14/2007
      U.S. GEOLOGICAL SURVEY MODULAR FINITE-DIFFERENCE GROUND-WATER FLOW MODEL
                             VERSION 1.11 08/08/2013

 LIST FILE: example_mild_adj.lst
                         UNIT  701

 OPENING example_mild.hds
 FILE TYPE:DATA(BINARY)   UNIT  702   STATUS:UNKNOWN
 FORMAT:UNFORMATTED            ACCESS:SEQUENTIAL          

 OPENING example_mild.flw
 FILE TYPE:DATA(BINARY)   UNIT  740   STATUS:UNKNOWN
 FORMAT:UNFORMATTED            ACCESS:SEQUENTIAL          

 OPENING example_mild.hbs
 FILE TYPE:DATA   UNIT  714   STATUS:UNKNOWN
 FORMAT:FORMATTED              ACCESS:SEQUENTIAL          

 OPENING example_mild.sen
 FILE TYPE:DATA   UNIT   48   STATUS:UNKNOWN
 FORMAT:FORMATTED              ACCESS:SEQUENTIAL          

 OPENING example_mild_adj.pcg
 FILE TYPE:DATA   UNIT   75   STATUS:UNKNOWN
 FORMAT:FORMATTED              ACCESS:SEQUENTIAL          
# Input Files                                                                                                                                                                                                                                                                                               

 OPENING example_mild.dis
 FILE TYPE:DIS   UNIT  707   STATUS:OLD    
 FORMAT:FORMATTED              ACCESS:SEQUENTIAL          

 OPENING example_mild.ba6
 FILE TYPE:BAS6   UNIT  708   STATUS:OLD    
 FORMAT:FORMATTED              ACCESS:SEQUENTIAL          

 OPENING example_mild.lpf
 FILE TYPE:LPF   UNIT  709   STATUS:OLD    
 FORMAT:FORMATTED              ACCESS:SEQUENTIAL          

 OPENING example_mild.zon
 FILE TYPE:ZONE   UNIT  720   STATUS:OLD    
 FORMAT:FORMATTED              ACCESS:SEQUENTIAL          

 OPENING example_mild.oc
 FILE TYPE:OC   UNIT  710   STATUS:OLD    
 FORMAT:FORMATTED              ACCESS:SEQUENTIAL          

 OPENING example_mild.mlt
 FILE TYPE:MULT   UNIT  722   STATUS:OLD    
 FORMAT:FORMATTED              ACCESS:SEQUENTIAL          

 OPENING example_mild.rch
 FILE TYPE:RCH   UNIT  713   STATUS:OLD    
 FORMAT:FORMATTED              ACCESS:SEQUENTIAL          

 OPENING example_mild.wel
 FILE TYPE:WEL   UNIT  712   STATUS:OLD    
 FORMAT:FORMATTED              ACCESS:SEQUENTIAL          

 OPENING example_mild.pcg
 FILE TYPE:PCG   UNIT  711   STATUS:OLD    
 FORMAT:FORMATTED              ACCESS:SEQUENTIAL          

 OPENING example_mild.hob
 FILE TYPE:HOB   UNIT  703   STATUS:OLD    
 FORMAT:FORMATTED              ACCESS:SEQUENTIAL          

 OPENING example_mild.adj
 FILE TYPE:ADJ   UNIT   35   STATUS:OLD    
 FORMAT:FORMATTED              ACCESS:SEQUENTIAL          

 BAS -- BASIC PACKAGE, VERSION 7, 5/2/2005 INPUT READ FROM UNIT  708
 
 MODFLOW was compiled using mixed precision
 Precision of REAL variables:           6
 Precision of DOUBLE PRECISION variables:          15

 DISCRETIZATION INPUT DATA READ FROM UNIT  707
 # MF2K DISCRETIZATION FILE
 #
 #
 # NLAY NROW NCOL NPER TIMEUNITS LENUNITS
    1 LAYERS        50 ROWS        50 COLUMNS
    1 STRESS PERIOD(S) IN SIMULATION
 MODEL TIME UNIT IS DAYS
 MODEL LENGTH UNIT IS METERS
  Confining bed flag for each layer:
   0



                               DELR
 READING ON UNIT  707 WITH FORMAT: (FREE)              



                               DELC
 READING ON UNIT  707 WITH FORMAT: (FREE)              



           TOP ELEVATION OF LAYER 1
 READING ON UNIT  707 WITH FORMAT: (FREE)              



             MODEL LAYER BOTTOM EL. FOR LAYER   1
 READING ON UNIT  707 WITH FORMAT: (FREE)              


 STRESS PERIOD     LENGTH       TIME STEPS     MULTIPLIER FOR DELT    SS FLAG
 ----------------------------------------------------------------------------
        1         1.000000          1                    1.000         SS

 STEADY-STATE SIMULATION



 
 #Example                                                                        
 THE FREE FORMAT OPTION HAS BEEN SELECTED



                     BOUNDARY ARRAY FOR LAYER   1
 READING ON UNIT  708 WITH FORMAT: (FREE)              

 AQUIFER HEAD WILL BE SET TO  -999.00     AT ALL NO-FLOW NODES (IBOUND=0).



                       INITIAL HEAD FOR LAYER   1
 READING ON UNIT  708 WITH FORMAT: (FREE)              

 OUTPUT CONTROL IS SPECIFIED ONLY AT TIME STEPS FOR WHICH OUTPUT IS DESIRED
 COMPACT CELL-BY-CELL BUDGET FILES WILL BE WRITTEN
 AUXILIARY DATA WILL BE SAVED IN CELL-BY-CELL BUDGET FILES
 HEAD PRINT FORMAT CODE IS   0    DRAWDOWN PRINT FORMAT CODE IS   0
 HEADS WILL BE SAVED ON UNIT  702    DRAWDOWNS WILL BE SAVED ON UNIT    0

 ZONE OPTION, INPUT READ FROM UNIT  720
 # Zone (ZONE) File
     1 ZONE ARRAYS

 MULTIPLIER OPTION, INPUT READ FROM UNIT  722
 # Multiplier (MULT)
   1 MULTIPLIER ARRAYS



            MULT. ARRAY: HK_Par    
 READING ON UNIT  722 WITH FORMAT: (FREE)              

            1           2           3           4           5           6           7           8           9          10
           11          12          13          14          15          16          17          18          19          20
           21          22          23          24          25          26          27          28          29          30
           31          32          33          34          35          36          37          38          39          40
           41          42          43          44          45          46          47          48          49          50
 ........................................................................................................................
   1    124.5       126.6       126.0       122.4       115.8       106.5       95.49       84.15       74.15       66.47    
        61.17       57.80       55.82       54.81       54.44       54.56       55.11       56.13       57.68       59.69    
        61.90       63.98       65.76       67.31       68.79       70.33       72.02       73.90       76.01       78.34    
        80.94       83.82       87.02       90.58       94.50       98.83       103.6       108.8       114.4       120.7    
        127.5       135.1       143.4       152.4       161.4       169.1       174.0       175.0       172.0       165.3    
   2    126.7       129.5       129.3       125.6       118.4       108.1       95.43       82.23       70.85       62.69    
        57.47       54.41       52.78       52.05       51.86       51.99       52.41       53.22       54.61       56.65    
        59.05       61.31       63.19       64.84       66.47       68.20       70.09       72.18       74.47       77.00    
        79.79       82.90       86.37       90.25       94.58       99.38       104.7       110.5       116.9       123.9    
        131.7       140.4       150.3       161.3       172.8       182.9       189.1       190.2       185.8       176.9    
   3    126.7       129.6       129.5       125.8       118.5       107.9       94.63       80.13       67.82       59.79    
        55.09       52.59       51.47       51.14       51.16       51.28       51.42       51.74       52.58       54.31    
        56.78       59.12       61.11       62.98       64.90       66.95       69.13       71.46       73.94       76.63    
        79.58       82.87       86.56       90.72       95.41       100.7       106.5       113.0       120.1       127.9    
        136.5       146.2       157.2       169.8       183.9       196.5       203.7       204.4       198.7       187.6    
   4    124.2       126.8       126.3       122.5       115.3       105.0       92.25       77.42       65.04       57.92    
        54.05       52.29       51.83       52.07       52.48       52.70       52.54       52.13       51.95       52.77    
        55.12       57.46       59.69       61.96       64.35       66.82       69.33       71.88       74.52       77.30    
        80.34       83.73       87.59       92.00       97.03       102.7       109.1       116.2       124.0       132.5    
        142.0       152.5       164.3       178.0       194.2       208.7       216.2       216.5       209.5       196.8    
   5    119.7       121.2       120.1       115.8       108.6       98.68       86.64       73.89       63.61       57.37    
        54.29       53.34       53.74       54.82       55.97       56.64       56.46       55.40       53.86       52.82    
        53.92       56.73       59.48       62.39       65.33       68.19       70.93       73.59       76.25       79.02    
        82.04       85.46       89.41       94.02       99.37       105.5       112.4       120.1       128.6       137.9    
        148.1       159.4       172.2       186.8       202.9       217.1       225.1       225.2       217.6       203.8    
   6    113.5       113.9       111.8       107.1       100.0       90.84       80.47       70.36       62.39       57.49    
        55.39       55.41       56.92       59.26       61.70       63.52       64.09       63.09       60.76       58.06    
        56.73       58.87       62.04       65.37       68.57       71.51       74.20       76.71       79.17       81.74    
        84.60       87.93       91.91       96.67       102.3       108.9       116.3       124.7       133.8       143.7    
        154.6       166.5       179.8       194.5       209.8       222.9       230.5       230.6       222.8       208.6    
   7    106.6       105.6       102.8       97.82       91.08       83.07       74.65       66.94       61.09       57.71    
        56.80       58.02       60.94       65.01       69.48       73.47       76.05       76.54       74.82       71.38    
        67.64       67.70       69.67       72.26       74.83       77.18       79.29       81.26       83.22       85.37    
        87.89       91.01       94.91       99.77       105.7       112.7       120.7       129.6       139.3       149.8    
        161.0       173.1       186.4       200.5       214.6       226.4       233.2       233.2       225.4       211.3    
   8    99.44       97.41       93.90       88.92       82.78       76.04       69.39       63.68       59.63       57.70    
        58.04       60.59       65.15       71.37       78.60       85.86       91.97       95.83       96.88       95.29    
        90.56       85.45       83.87       83.85       84.46       85.28       86.16       87.11       88.25       89.72    
        91.72       94.48       98.21       103.1       109.3       116.7       125.3       134.7       144.8       155.4    
        166.6       178.4       191.0       204.1       216.8       227.3       233.4       233.2       225.9       212.2    
   9    92.65       89.74       85.82       80.97       75.51       69.91       64.74       60.58       57.97       57.28    
        58.77       62.58       68.80       77.34       87.79       99.14       109.9       118.4       123.3       123.9    
        119.8       110.6       103.7       99.49       96.94       95.38       94.43       93.95       93.95       94.53    
        95.84       98.10       101.6       106.4       112.8       120.7       129.8       139.6       149.8       160.2    
        170.7       181.6       193.0       204.7       215.9       225.3       230.9       231.0       224.4       211.7    
  10    86.50       82.96       78.80       74.17       69.35       64.71       60.68       57.69       56.15       56.41    
        58.77       63.59       71.20       81.87       95.50       111.1       126.8       140.0       148.5       150.8    
        146.1       135.6       125.1       116.8       110.8       106.5       103.4       101.3       99.95       99.49    
        99.99       101.7       104.7       109.5       116.1       124.4       133.9       143.9       153.8       163.4    
        172.7       182.0       191.6       201.6       211.4       219.9       225.6       226.5       221.2       209.8    
  11    81.15       77.18       72.93       68.55       64.27       60.39       57.21       55.06       54.27       55.15    
        58.06       63.46       71.93       84.10       100.3       119.8       139.7       156.7       167.8       171.3    
        166.8       156.3       144.1       133.1       124.3       117.4       112.3       108.5       105.8       104.3    
        104.0       104.9       107.5       112.0       118.8       127.5       137.4       147.3       156.3       164.4    
        171.8       178.9       186.3       194.3       202.8       210.9       217.2       219.7       216.5       207.0    
  12    76.67       72.41       68.15       64.02       60.20       56.89       54.34       52.78       52.47       53.70    
        56.82       62.34       70.96       83.65       101.4       123.7       146.7       166.1       178.9       183.6    
        180.1       170.6       158.3       146.2       135.6       127.0       120.2       115.0       111.3       108.8    
        107.6       107.9       109.9       114.0       120.6       129.7       139.8       149.1       156.7       162.6    
        167.5       172.0       176.9       182.8       190.0       198.0       205.7       210.6       210.4       203.5    
  13    73.02       68.61       64.38       60.48       57.02       54.17       52.07       50.91       50.91       52.29    
        55.38       60.64       68.76       80.80       98.26       121.9       146.4       167.0       180.9       187.2    
        185.6       178.0       166.9       155.0       143.9       134.4       126.6       120.5       115.9       112.8    
        111.0       110.6       111.9       115.3       121.5       130.9       140.9       148.9       154.4       157.8    
        159.9       161.5       163.7       167.4       173.2       181.4       190.9       199.3       203.1       199.6    
  14    70.17       65.68       61.53       57.83       54.68       52.16       50.41       49.54       49.73       51.16    
        54.12       58.97       66.27       76.86       92.04       114.1       138.9       159.8       175.0       183.3    
        184.3       179.2       170.2       159.5       148.9       139.3       131.2       124.7       119.7       116.2    
        113.9       113.2       113.9       116.6       121.8       130.7       140.1       146.1       149.3       150.2    
        149.5       148.2       147.6       148.9       153.3       161.5       173.1       185.8       194.9       195.6    
  15    68.06       63.55       59.49       55.98       53.07       50.83       49.34       48.69       49.02       50.48    
        53.31       57.81       64.42       73.82       87.00       104.9       127.1       147.9       164.3       174.5    
        178.1       175.7       169.0       160.1       150.7       141.7       133.9       127.5       122.5       118.9    
        116.6       115.7       116.2       118.4       122.9       129.5       136.4       140.7       142.0       140.7    
        137.6       133.6       130.2       129.1       131.7       139.3       152.7       170.2       186.0       191.9    
  16    66.64       62.16       58.20       54.85       52.15       50.13       48.84       48.37       48.81       50.31    
        53.06       57.33       63.47       72.03       83.66       98.96       117.7       136.7       152.9       164.1    
        169.5       169.3       164.8       157.8       149.8       141.9       134.8       128.9       124.3       120.9    
        118.8       118.0       118.4       120.4       123.8       128.4       132.7       134.9       134.3       131.1    
        125.7       119.3       113.3       109.6       109.9       116.3       130.4       152.4       176.5       188.9    
  17    65.84       61.42       57.57       54.37       51.84       49.99       48.88       48.54       49.09       50.63    
        53.34       57.46       63.30       71.26       81.81       95.29       111.3       128.1       143.1       154.2    
        160.3       161.5       158.8       153.4       146.9       140.3       134.2       129.0       125.0       122.1    
        120.4       119.9       120.4       122.1       124.7       127.7       129.9       130.2       127.7       122.8    
        115.5       106.7       98.29       92.09       89.99       94.11       107.3       132.4       166.0       186.3    
  18    65.61       61.28       57.55       54.48       52.09       50.39       49.41       49.18       49.80       51.37    
        54.06       58.07       63.67       71.20       80.99       93.18       107.4       122.1       135.5       145.7    
        151.7       153.4       151.8       147.8       142.6       137.2       132.2       127.9       124.7       122.5    
        121.3       121.2       122.0       123.6       125.6       127.5       128.4       127.3       123.5       116.9    
        107.8       97.04       86.44       77.95       73.46       74.92       85.31       110.3       153.4       182.5    
  19    65.93       61.71       58.09       55.15       52.89       51.30       50.41       50.26       50.92       52.49    
        55.12       59.00       64.39       71.55       80.76       92.03       104.9       118.0       129.7       138.5    
        143.7       145.5       144.5       141.5       137.4       133.2       129.2       125.9       123.5       122.0    
        121.5       121.8       122.9       124.6       126.4       127.9       128.1       126.3       121.6       114.0    
        103.4       90.95       78.35       67.79       61.27       60.47       67.66       87.84       135.8       170.7    
  20    66.75       62.66       59.17       56.35       54.19       52.69       51.87       51.75       52.41       53.94    
        56.46       60.16       65.27       72.04       80.69       91.22       103.1       114.8       124.8       132.0    
        136.3       137.9       137.3       135.0       132.0       128.6       125.6       123.2       121.6       120.8    
        120.9       121.8       123.3       125.2       127.1       128.5       128.7       126.7       121.9       113.8    
        102.5       88.62       74.12       61.50       53.23       50.99       56.67       74.40       108.1       136.8    
  21    68.06       64.13       60.77       58.06       56.00       54.57       53.79       53.68       54.29       55.72    
        58.07       61.50       66.20       72.43       80.38       90.09       101.0       111.5       119.7       125.3    
        128.9       130.7       130.6       129.1       126.7       124.1       121.8       120.1       119.2       119.1    
        119.7       121.1       123.1       125.3       127.5       129.2       129.6       128.0       123.6       115.8    
        104.4       89.73       73.49       58.52       48.31       44.65       48.61       62.28       85.73       108.5    
  22    69.83       66.08       62.88       60.30       58.32       56.95       56.19       56.06       56.61       57.89    
        60.00       63.06       67.21       72.65       79.55       87.98       97.56       106.7       112.8       117.5    
        121.6       124.5       125.5       124.5       122.5       120.2       118.2       117.0       116.6       117.0    
        118.2       120.0       122.3       124.9       127.4       129.4       130.3       129.3       125.6       118.6    
        107.8       93.31       75.91       58.27       45.63       40.28       42.20       52.57       70.75       90.11    
  23    72.05       68.52       65.50       63.05       61.17       59.86       59.11       58.96       59.42       60.54    
        62.38       65.01       68.49       72.90       78.28       84.60       91.66       98.78       102.7       108.3    
        115.3       121.0       123.3       122.5       120.0       117.4       115.4       114.4       114.2       115.0    
        116.5       118.6       121.2       124.0       126.8       129.1       130.3       129.8       126.8       120.7    
        110.8       97.06       79.88       60.26       45.01       37.89       37.41       45.71       62.13       79.89    
  24    74.71       71.44       68.63       66.34       64.57       63.32       62.61       62.44       62.83       63.81    
        65.41       67.62       70.44       73.75       77.37       80.90       83.88       85.80       89.95       99.93    
        112.9       123.1       126.7       124.6       120.3       116.4       113.7       112.4       112.3       113.2    
        114.8       117.1       119.8       122.7       125.6       127.9       129.3       129.0       126.4       120.7    
        111.3       98.04       81.15       62.82       47.73       38.18       34.20       41.43       58.82       75.72    
  25    77.79       74.83       72.27       70.16       68.53       67.38       66.72       66.57       66.94       67.84    
        69.28       71.22       73.56       76.07       78.32       79.61       79.17       77.83       83.85       98.97    
        120.4       135.9       139.0       132.5       123.9       117.3       113.4       111.5       111.2       111.9    
        113.5       115.8       118.4       121.3       124.0       126.2       127.4       127.0       124.4       118.8    
        109.6       96.92       81.35       65.13       51.29       41.05       32.85       39.69       59.66       74.56    
  26    81.27       78.67       76.40       74.52       73.06       72.04       71.48       71.39       71.80       72.72    
        74.16       76.06       78.30       80.64       82.62       83.66       83.44       83.79       91.43       112.7    
        145.3       164.4       162.8       146.7       130.6       120.3       114.6       111.9       111.0       111.4    
        112.7       114.7       117.2       119.8       122.2       124.1       125.0       124.3       121.4       115.7    
        107.0       95.15       81.20       66.87       54.09       43.90       38.12       43.28       58.31       72.40    
  27    85.13       82.94       81.01       79.40       78.15       77.29       76.86       76.89       77.42       78.49    
        80.10       82.23       84.83       87.74       90.73       93.61       96.67       101.3       114.0       150.2    
        189.3       202.8       192.6       164.6       138.8       125.0       117.4       113.4       111.7       111.6    
        112.5       114.2       116.2       118.4       120.5       121.9       122.4       121.3       118.3       112.7    
        104.5       93.92       81.69       69.21       57.97       49.40       45.63       49.59       60.28       71.99    
  28    89.33       87.60       86.05       84.74       83.73       83.06       82.80       83.01       83.73       85.04    
        86.98       89.60       92.93       96.99       101.9       107.8       115.7       128.0       150.7       188.9    
        218.1       223.7       206.1       175.9       148.5       131.3       121.4       116.0       113.3       112.5    
        112.8       114.0       115.7       117.4       119.0       120.1       120.1       118.8       115.8       110.6    
        103.3       94.14       83.76       73.26       63.92       57.18       54.64       57.65       65.33       74.57    
  29    93.82       92.60       91.46       90.47       89.71       89.25       89.18       89.57       90.52       92.13    
        94.49       97.72       102.0       107.4       114.4       123.5       135.9       153.5       178.6       208.2    
        226.8       225.5       206.3       179.1       154.3       136.6       125.5       118.9       115.3       113.8    
        113.6       114.3       115.5       116.9       118.1       118.8       118.6       117.2       114.4       109.9    
        103.8       96.33       87.96       79.55       72.17       67.00       65.20       67.41       72.94       79.98    
  30    98.54       97.84       97.13       96.47       95.95       95.67       95.76       96.32       97.48       99.37    
        102.1       105.9       111.0       117.7       126.4       137.6       152.2       170.9       192.7       212.8    
        222.4       217.1       199.6       176.9       155.8       139.6       128.5       121.4       117.3       115.2    
        114.6       114.9       115.8       116.8       117.7       118.2       117.9       116.8       114.5       111.0    
        106.4       100.8       94.61       88.36       82.86       79.02       77.66       79.11       82.89       87.89    
  31    103.4       103.3       103.0       102.6       102.2       102.1       102.2       102.9       104.2       106.2    
        109.3       113.5       119.1       126.4       135.9       147.8       162.4       179.0       195.5       207.9    
        211.5       204.6       189.6       171.4       154.1       140.1       129.9       123.1       118.8       116.6    
        115.7       115.7       116.3       117.1       117.9       118.4       118.3       117.6       116.1       113.9    
        111.0       107.7       103.9       99.95       96.27       93.54       92.38       93.01       95.12       98.02    
  32    108.4       108.7       108.8       108.6       108.3       108.2       108.3       108.8       110.1       112.1    
        115.1       119.4       125.1       132.5       141.8       153.0       165.8       179.0       190.4       197.1    
        197.1       190.0       177.8       163.6       149.9       138.5       129.8       123.6       119.7       117.5    
        116.5       116.5       117.0       117.8       118.7       119.4       119.8       119.7       119.3       118.6    
        117.9       117.2       116.2       114.6       112.7       110.9       109.7       109.3       109.6       110.1    
  33    113.3       114.1       114.4       114.3       114.0       113.6       113.4       113.7       114.6       116.3    
        119.0       122.9       128.1       134.9       143.2       152.8       163.0       172.5       179.5       182.4    
        180.5       174.1       164.8       154.1       143.9       135.0       128.1       123.1       119.8       117.9    
        117.1       117.2       117.8       118.8       120.0       121.2       122.3       123.3       124.2       125.3    
        127.0       129.3       131.6       132.7       132.4       131.2       129.6       127.9       126.0       123.9    
  34    118.3       119.4       119.8       119.5       118.8       118.0       117.2       116.9       117.2       118.2    
        120.2       123.2       127.5       133.0       139.8       147.3       154.7       160.8       164.3       164.8    
        162.2       157.3       150.7       143.5       136.4       130.2       125.1       121.4       118.9       117.6    
        117.2       117.5       118.5       120.0       121.7       123.7       125.9       128.2       130.8       134.0    
        138.4       144.4       150.5       154.1       155.1       154.1       151.7       148.3       144.0       138.9    
  35    123.1       124.4       124.7       124.0       122.7       121.0       119.4       118.2       117.4       117.4    
        118.3       120.1       122.9       126.8       131.5       136.8       141.6       144.8       145.8       144.9    
        142.7       139.8       136.1       132.1       128.0       124.3       121.1       118.7       117.2       116.6    
        116.7       117.5       119.0       121.1       123.7       126.8       130.4       134.5       139.2       144.8    
        152.1       162.3       172.1       177.5       179.5       178.5       175.2       169.9       162.8       154.4    
  36    127.8       129.2       129.1       127.7       125.3       122.5       119.7       117.2       115.1       113.7    
        113.1       113.3       114.3       116.2       118.9       121.8       124.4       125.4       124.6       123.4    
        122.6       122.0       121.4       120.4       119.1       117.6       116.3       115.2       114.7       114.8    
        115.5       116.9       119.1       121.9       125.6       130.2       135.6       141.9       149.2       157.9    
        168.6       181.4       192.9       200.5       203.6       202.8       198.6       191.3       181.5       169.8    
  37    132.5       133.7       133.0       130.5       126.7       122.4       118.0       113.9       110.4       107.4    
        105.0       103.4       102.4       102.2       102.7       103.5       104.1       103.7       101.9       101.6    
        102.9       104.9       107.1       108.9       110.1       110.6       110.9       111.1       111.5       112.3    
        113.7       115.7       118.5       122.3       127.3       133.5       141.0       149.9       160.2       171.9    
        185.2       199.6       212.5       221.5       225.8       225.3       220.4       211.4       199.0       184.2    
  38    137.3       138.2       136.4       132.4       126.9       120.7       114.6       108.8       103.6       98.89    
        94.81       91.32       88.44       86.18       84.54       83.37       82.34       80.65       79.63       81.32    
        84.84       89.36       94.03       98.15       101.4       103.6       105.2       106.4       107.6       109.1    
        111.0       113.6       117.2       122.0       128.2       136.3       146.2       157.9       171.1       185.6    
        201.0       216.4       230.1       240.1       245.1       244.8       239.3       228.9       214.3       196.7    
  39    142.2       142.6       139.5       133.5       125.8       117.7       109.7       102.2       95.41       89.18    
        83.52       78.41       73.89       69.99       66.74       64.11       61.96       60.43       61.22       64.41    
        69.57       75.93       82.53       88.49       93.25       96.75       99.28       101.3       103.1       105.1    
        107.6       110.7       115.0       120.6       128.2       138.1       150.6       165.2       181.2       197.9    
        214.8       231.0       245.0       255.3       260.6       260.4       254.4       242.9       226.5       206.9    
  40    147.6       147.3       142.3       133.9       123.8       113.6       103.9       94.92       86.73       79.21    
        72.29       65.97       60.30       55.36       51.27       48.12       46.05       45.46       47.10       51.11    
        57.24       64.84       72.83       80.08       85.88       90.16       93.27       95.72       97.98       100.4    
        103.3       107.0       111.8       118.2       126.9       138.5       153.5       171.1       189.6       208.0    
        225.8       242.2       256.1       266.3       271.7       271.3       265.0       252.7       235.2       214.2    
  41    153.4       152.4       145.1       133.8       121.1       108.8       97.63       87.52       78.33       69.87    
        62.08       54.98       48.66       43.26       38.93       35.84       34.18       34.23       36.37       40.81    
        47.47       55.91       64.85       72.90       79.20       83.76       87.06       89.74       92.28       95.07    
        98.39       102.5       107.9       114.9       124.3       137.3       154.7       174.9       195.2       214.5    
        232.6       248.9       262.5       272.4       277.6       277.1       270.6       258.0       240.0       218.3    
  42    159.8       158.0       147.8       133.0       117.7       103.8       91.58       80.70       70.85       61.81    
        53.50       45.98       39.39       33.88       29.63       26.78       25.45       25.85       28.24       32.87    
        39.83       48.83       58.36       66.70       72.95       77.31       80.50       83.22       85.98       89.11    
        92.86       97.48       103.3       110.9       120.9       134.5       153.7       175.7       196.5       216.1    
        234.2       250.3       263.5       273.1       278.1       277.7       271.3       258.9       241.0       219.4    
  43    166.4       163.9       150.3       131.6       114.0       99.04       86.24       74.98       64.79       55.43    
        46.86       39.16       32.48       27.03       22.93       20.29       19.18       19.72       22.17       26.87    
        34.02       43.23       52.95       61.03       66.66       70.45       73.35       76.10       79.13       82.66    
        86.90       92.06       98.46       106.6       117.2       131.4       150.1       171.4       192.5       212.3    
        230.3       246.1       259.1       268.5       273.5       273.2       267.3       255.5       238.4       217.5    
  44    171.9       169.4       151.9       129.4       110.3       95.02       82.11       70.74       60.43       50.94    
        42.25       34.47       27.78       22.36       18.37       15.85       14.84       15.41       17.82       22.47    
        29.52       38.51       47.98       55.20       59.74       62.81       65.52       68.46       71.89       75.95    
        80.75       86.48       93.45       102.1       113.1       127.2       144.7       164.5       184.7       204.1    
        221.8       237.4       250.1       259.4       264.4       264.5       259.2       248.5       232.6       213.1    
  45    173.7       172.0       151.8       126.5       107.6       92.44       79.58       68.22       57.90       48.39    
        39.66       31.83       25.07       19.61       15.58       13.06       12.06       12.66       15.07       19.64    
        26.11       34.12       42.75       48.36       51.68       54.34       57.22       60.63       64.66       69.33    
        74.74       81.04       88.51       97.52       108.6       122.1       138.3       156.4       175.1       193.5    
        210.4       225.4       237.7       246.7       251.9       252.4       248.1       238.5       224.3       206.6    
  46    168.7       165.9       148.4       126.0       107.0       91.68       78.78       67.45       57.19       47.74    
        39.05       31.18       24.31       18.65       14.39       11.68       10.63       11.36       14.07       18.96    
        24.46       29.91       36.45       40.00       42.74       45.68       49.20       53.33       58.04       63.35    
        69.32       76.10       83.92       93.10       104.0       116.8       131.7       148.0       165.0       181.9    
        197.6       211.6       223.3       231.9       237.0       238.1       234.6       226.5       214.1       198.4    
  47    160.2       157.1       143.3       124.7       107.1       92.17       79.40       68.22       58.14       48.90    
        40.37       32.56       25.59       19.64       14.94       11.79       10.54       11.61       15.43       21.65    
        25.82       27.00       28.13       31.56       34.64       38.36       42.65       47.45       52.75       58.56    
        64.95       72.06       80.08       89.23       99.75       111.8       125.3       140.0       155.2       170.3    
        184.5       197.3       208.0       216.1       221.0       222.4       219.8       213.1       202.6       189.2    
  48    150.8       147.9       137.3       122.3       107.0       93.10       80.91       70.14       60.47       51.62    
        43.45       35.92       29.07       22.99       17.84       14.02       12.44       14.02       20.95       29.27    
        31.37       30.28       26.52       26.86       30.13       34.19       38.78       43.86       49.42       55.47    
        62.08       69.31       77.32       86.25       96.25       107.4       119.6       132.7       146.1       159.4    
        171.9       183.2       192.7       200.0       204.6       206.2       204.3       199.0       190.4       179.2    
  49    141.8       139.2       130.9       119.1       106.3       93.97       82.79       72.77       63.72       55.48    
        47.90       40.92       34.54       28.80       23.79       19.54       18.33       22.47       31.91       38.37    
        37.93       36.50       33.71       31.11       31.67       34.33       38.25       43.01       48.44       54.45    
        60.99       68.12       75.90       84.41       93.74       103.9       114.8       126.3       137.9       149.3    
        160.1       169.8       178.1       184.4       188.5       190.1       188.9       184.8       177.9       168.9    
  50    133.4       130.9       124.6       115.4       104.9       94.48       84.65       75.64       67.42       59.91    
        53.03       46.72       40.97       35.76       31.14       27.74       27.86       33.12       41.00       44.76    
        43.98       42.57       40.06       37.32       36.47       37.80       40.78       44.93       49.93       55.60    
        61.83       68.60       75.91       83.81       92.31       101.4       110.9       120.8       130.7       140.4    
        149.4       157.5       164.4       169.7       173.2       174.6       173.8       170.8       165.6       158.7    



             ZONE ARRAY: HK_Par_Z1 
 READING ON UNIT  720 WITH FORMAT: (FREE)              

 LPF -- LAYER-PROPERTY FLOW PACKAGE, VERSION 7, 5/2/2005
         INPUT READ FROM UNIT  709
 # LPF: Layer Property Flow package file
 CELL-BY-CELL FLOWS WILL BE SAVED ON UNIT  740
 HEAD AT CELLS THAT CONVERT TO DRY=  -888.00    
     1 Named Parameters     

   LAYER FLAGS:
 LAYER       LAYTYP        LAYAVG         CHANI        LAYVKA        LAYWET
 ---------------------------------------------------------------------------
    1             0             0     1.000E+00             1             0

   INTERPRETATION OF LAYER FLAGS:
                        INTERBLOCK     HORIZONTAL    DATA IN
         LAYER TYPE   TRANSMISSIVITY   ANISOTROPY   ARRAY VKA   WETTABILITY
 LAYER      (LAYTYP)      (LAYAVG)       (CHANI)      (LAYVKA)      (LAYWET)
 ---------------------------------------------------------------------------
    1      CONFINED      HARMONIC     1.000E+00    ANISOTROPY  NON-WETTABLE

 WETTING CAPABILITY IS NOT ACTIVE IN ANY LAYER

 PARAMETERS DEFINED IN THE LPF PACKAGE

 PARAMETER NAME:HK_Par       TYPE:HK     CLUSTERS:   1
 Parameter value from package file is:    1.0000    
                LAYER:   1    MULTIPLIER ARRAY: HK_Par    ZONE ARRAY: HK_Par_Z1
                ZONE VALUES:    1

    HYD. COND. ALONG ROWS FOR LAYER   1 WILL BE DEFINED BY PARAMETERS
 (PRINT FLAG=  -1)

    HYD. COND. ALONG ROWS is defined by the following parameters:
 HK_Par    


              HYD. COND. ALONG ROWS FOR LAYER   1

  HORIZ. TO VERTICAL ANI. =   1.00000     FOR LAYER   1

 WEL -- WELL PACKAGE, VERSION 7, 5/2/2005 INPUT READ FROM UNIT  712
 No named parameters
 MAXIMUM OF      1 ACTIVE WELLS AT ONE TIME
 CELL-BY-CELL FLOWS WILL BE SAVED ON UNIT  740


     0 Well parameters

 RCH -- RECHARGE PACKAGE, VERSION 7, 5/2/2005 INPUT READ FROM UNIT  713
 No named parameters
 OPTION 3 -- RECHARGE TO HIGHEST ACTIVE NODE IN EACH VERTICAL COLUMN
 CELL-BY-CELL FLOWS WILL BE SAVED ON UNIT  740


     0 Recharge parameters

 PCG -- CONJUGATE-GRADIENT SOLUTION PACKAGE, VERSION 7, 5/2/2005
 MAXIMUM OF     25 CALLS OF SOLUTION ROUTINE
 MAXIMUM OF     50 INTERNAL ITERATIONS PER CALL TO SOLUTION ROUTINE
 MATRIX PRECONDITIONING TYPE :    1



                                    SOLUTION BY THE CONJUGATE-GRADIENT METHOD
                                   -------------------------------------------
                    MAXIMUM NUMBER OF CALLS TO PCG ROUTINE =       25
                        MAXIMUM ITERATIONS PER CALL TO PCG =       50
                               MATRIX PRECONDITIONING TYPE =        1
        RELAXATION FACTOR (ONLY USED WITH PRECOND. TYPE 1) =    0.10000E+01
 PARAMETER OF POLYNOMIAL PRECOND. = 2 (2) OR IS CALCULATED :        0
                         HEAD CHANGE CRITERION FOR CLOSURE =    0.10000E-03
                     RESIDUAL CHANGE CRITERION FOR CLOSURE =    0.10000E-02
            PCG HEAD AND RESIDUAL CHANGE PRINTOUT INTERVAL =      999
     PRINTING FROM SOLVER IS LIMITED(1) OR SUPPRESSED (>1) =        2
                            STEADY-STATE DAMPING PARAMETER =    0.10000E+01
                               TRANSIENT DAMPING PARAMETER =    0.10000E+01

 OBS2BAS7 -- HEAD OBSERVATIONS, VERSION 2.0, 2/28/2006
 INPUT READ FROM UNIT 703

 NUMBER OF HEADS....................................:   25
   NUMBER OF MULTILAYER HEADS.......................:    0
   MAXIMUM NUMBER OF LAYERS FOR MULTILAYER HEADS....:    0
 HEAD OBSERVATIONS WILL BE SAVED ON UNIT............:  714
 SIMULATED EQUIVALENT HEAD AT DRY CELLS WILL BE:   -777.000    

 OBSERVED HEAD DATA -- TIME OFFSETS ARE MULTIPLIED BY:   1.0000    

                    REFER.
       OBSERVATION  STRESS    TIME
  OBS#    NAME      PERIOD   OFFSET    OBSERVATION
     1 hed1             1    0.000       2.126    
 Observation within a steady-state time step has been moved to the end of the time step.
     2 hed2             1    0.000       11.41    
 Observation within a steady-state time step has been moved to the end of the time step.
     3 hed3             1    0.000       21.76    
 Observation within a steady-state time step has been moved to the end of the time step.
     4 hed4             1    0.000       23.35    
 Observation within a steady-state time step has been moved to the end of the time step.
     5 hed5             1    0.000       13.87    
 Observation within a steady-state time step has been moved to the end of the time step.
     6 hed6             1    0.000       9.056    
 Observation within a steady-state time step has been moved to the end of the time step.
     7 hed7             1    0.000       17.26    
 Observation within a steady-state time step has been moved to the end of the time step.
     8 hed8             1    0.000       23.83    
 Observation within a steady-state time step has been moved to the end of the time step.
     9 hed9             1    0.000       27.29    
 Observation within a steady-state time step has been moved to the end of the time step.
    10 hed10            1    0.000       27.65    
 Observation within a steady-state time step has been moved to the end of the time step.
    11 hed11            1    0.000       25.73    
 Observation within a steady-state time step has been moved to the end of the time step.
    12 hed12            1    0.000       24.59    
 Observation within a steady-state time step has been moved to the end of the time step.
    13 hed13            1    0.000       23.60    
 Observation within a steady-state time step has been moved to the end of the time step.
    14 hed14            1    0.000       26.65    
 Observation within a steady-state time step has been moved to the end of the time step.
    15 hed15            1    0.000       27.21    
 Observation within a steady-state time step has been moved to the end of the time step.
    16 hed16            1    0.000       14.05    
 Observation within a steady-state time step has been moved to the end of the time step.
    17 hed17            1    0.000       19.64    
 Observation within a steady-state time step has been moved to the end of the time step.
    18 hed18            1    0.000       16.49    
 Observation within a steady-state time step has been moved to the end of the time step.
    19 hed19            1    0.000       17.36    
 Observation within a steady-state time step has been moved to the end of the time step.
    20 hed20            1    0.000       13.64    
 Observation within a steady-state time step has been moved to the end of the time step.
    21 hed21            1    0.000       15.36    
 Observation within a steady-state time step has been moved to the end of the time step.
    22 hed22            1    0.000       10.43    
 Observation within a steady-state time step has been moved to the end of the time step.
    23 hed23            1    0.000       10.52    
 Observation within a steady-state time step has been moved to the end of the time step.
    24 hed24            1    0.000       8.343    
 Observation within a steady-state time step has been moved to the end of the time step.
    25 hed25            1    0.000       6.056    
 Observation within a steady-state time step has been moved to the end of the time step.

                                                     HEAD CHANGE
                                                      REFERENCE
        OBSERVATION                   ROW     COL    OBSERVATION
  OBS#     NAME       LAY  ROW  COL  OFFSET  OFFSET   (IF > 0)
     1  hed1            1   45    3   0.000   0.000        0
     2  hed2            1    4    8   0.000   0.000        0
     3  hed3            1   14   16   0.000   0.000        0
     4  hed4            1   49   16   0.000   0.000        0
     5  hed5            1   24   18   0.000   0.000        0
     6  hed6            1   27   18   0.000   0.000        0
     7  hed7            1   38   18   0.000   0.000        0
     8  hed8            1    9   19   0.000   0.000        0
     9  hed9            1   48   19   0.000   0.000        0
    10  hed10           1   49   20   0.000   0.000        0
    11  hed11           1    5   21   0.000   0.000        0
    12  hed12           1    8   21   0.000   0.000        0
    13  hed13           1   43   21   0.000   0.000        0
    14  hed14           1   47   23   0.000   0.000        0
    15  hed15           1   48   23   0.000   0.000        0
    16  hed16           1   27   24   0.000   0.000        0
    17  hed17           1   14   36   0.000   0.000        0
    18  hed18           1   42   37   0.000   0.000        0
    19  hed19           1   17   40   0.000   0.000        0
    20  hed20           1   35   42   0.000   0.000        0
    21  hed21           1   23   44   0.000   0.000        0
    22  hed22           1    4   45   0.000   0.000        0
    23  hed23           1   25   47   0.000   0.000        0
    24  hed24           1   25   48   0.000   0.000        0
    25  hed25           1   19   49   0.000   0.000        0

 ADJ -- ADJOINT STATE SENSITIVITY PACKAGE, VERSION -- PRE-RELEASE
        INPUT READ FROM UNIT   35
 # Modflow 2005 ADJ File Input Adjoint
 USING OBSERVATION BASED ADJOINT STATE MODE
SENSITIVITY OUTPUT FILE CONTROL INFORMATION -   48  12   0   0
 Adjoint state solver information  read from unit 75
 PCG -- CONJUGATE-GRADIENT SOLUTION PACKAGE, VERSION 7, 5/2/2005
 MAXIMUM OF     50 CALLS OF SOLUTION ROUTINE
 MAXIMUM OF    100 INTERNAL ITERATIONS PER CALL TO SOLUTION ROUTINE
 MATRIX PRECONDITIONING TYPE :    1



                                    SOLUTION BY THE CONJUGATE-GRADIENT METHOD
                                   -------------------------------------------
                    MAXIMUM NUMBER OF CALLS TO PCG ROUTINE =       50
                        MAXIMUM ITERATIONS PER CALL TO PCG =      100
                               MATRIX PRECONDITIONING TYPE =        1
        RELAXATION FACTOR (ONLY USED WITH PRECOND. TYPE 1) =    0.10000E+01
 PARAMETER OF POLYNOMIAL PRECOND. = 2 (2) OR IS CALCULATED :        0
                         HEAD CHANGE CRITERION FOR CLOSURE =    0.10000E-05
                     RESIDUAL CHANGE CRITERION FOR CLOSURE =    0.10000E-04
            PCG HEAD AND RESIDUAL CHANGE PRINTOUT INTERVAL =      999
     PRINTING FROM SOLVER IS LIMITED(1) OR SUPPRESSED (>1) =        2
                            STEADY-STATE DAMPING PARAMETER =    0.10000E+01
                               TRANSIENT DAMPING PARAMETER =    0.10000E+01

 NUMBER OF PARAMETERS READ FROM ADJ FILE:     1
 NUMBER OF DISTRIBUTED PARAMETERS   2500
DISTRIBUTED PARAMETER SENSITIVITIES WRITTEN TO UNIT  48 USING OUTPUT FORMAT   1
RELATIVE SENSITIVITY CUTOFF =   0.000    
DISTRIBUTED PARAMETERS ARE PARAMETERS:
     1     1     1     1     1     1     1     1     1     1
DISTRIBUTED PARAMETERS ARE PARAMETERS:
     1     1     1     1     1     1     1     1     1     1
DISTRIBUTED PARAMETERS ARE PARAMETERS:
     1     1     1     1     1     1     1     1     1     1
DISTRIBUTED PARAMETERS ARE PARAMETERS:
     1     1     1     1     1     1     1     1     1     1
DISTRIBUTED PARAMETERS ARE PARAMETERS:
     1     1     1     1     1     1     1     1     1     1
DISTRIBUTED PARAMETERS ARE PARAMETERS:
     1     1     1     1     1     1     1     1     1     1
DISTRIBUTED PARAMETERS ARE PARAMETERS:
     1     1     1     1     1     1     1     1     1     1
DISTRIBUTED PARAMETERS ARE PARAMETERS:
     1     1     1     1     1     1     1     1     1     1
DISTRIBUTED PARAMETERS ARE PARAMETERS:
     1     1     1     1     1     1     1     1     1     1
DISTRIBUTED PARAMETERS ARE PARAMETERS:
     1     1     1     1     1     1     1     1     1     1
DISTRIBUTED PARAMETERS ARE PARAMETERS:
     1     1     1     1     1     1     1     1     1     1
DISTRIBUTED PARAMETERS ARE PARAMETERS:
     1     1     1     1     1     1     1     1     1     1
DISTRIBUTED PARAMETERS ARE PARAMETERS:
     1     1     1     1     1     1     1     1     1     1
DISTRIBUTED PARAMETERS ARE PARAMETERS:
     1     1     1     1     1     1     1     1     1     1
DISTRIBUTED PARAMETERS ARE PARAMETERS:
     1     1     1     1     1     1     1     1     1     1
DISTRIBUTED PARAMETERS ARE PARAMETERS:
     1     1     1     1     1     1     1     1     1     1
DISTRIBUTED PARAMETERS ARE PARAMETERS:
     1     1     1     1     1     1     1     1     1     1
DISTRIBUTED PARAMETERS ARE PARAMETERS:
     1     1     1     1     1     1     1     1     1     1
DISTRIBUTED PARAMETERS ARE PARAMETERS:
     1     1     1     1     1     1     1     1     1     1
DISTRIBUTED PARAMETERS ARE PARAMETERS:
     1     1     1     1     1     1     1     1     1     1
DISTRIBUTED PARAMETERS ARE PARAMETERS:
     1     1     1     1     1     1     1     1     1     1
DISTRIBUTED PARAMETERS ARE PARAMETERS:
     1     1     1     1     1     1     1     1     1     1
DISTRIBUTED PARAMETERS ARE PARAMETERS:
     1     1     1     1     1     1     1     1     1     1
DISTRIBUTED PARAMETERS ARE PARAMETERS:
     1     1     1     1     1     1     1     1     1     1
DISTRIBUTED PARAMETERS ARE PARAMETERS:
     1     1     1     1     1     1     1     1     1     1
DISTRIBUTED PARAMETERS ARE PARAMETERS:
     1     1     1     1     1     1     1     1     1     1
DISTRIBUTED PARAMETERS ARE PARAMETERS:
     1     1     1     1     1     1     1     1     1     1
DISTRIBUTED PARAMETERS ARE PARAMETERS:
     1     1     1     1     1     1     1     1     1     1
DISTRIBUTED PARAMETERS ARE PARAMETERS:
     1     1     1     1     1     1     1     1     1     1
DISTRIBUTED PARAMETERS ARE PARAMETERS:
     1     1     1     1     1     1     1     1     1     1
DISTRIBUTED PARAMETERS ARE PARAMETERS:
     1     1     1     1     1     1     1     1     1     1
DISTRIBUTED PARAMETERS ARE PARAMETERS:
     1     1     1     1     1     1     1     1     1     1
DISTRIBUTED PARAMETERS ARE PARAMETERS:
     1     1     1     1     1     1     1     1     1     1
DISTRIBUTED PARAMETERS ARE PARAMETERS:
     1     1     1     1     1     1     1     1     1     1
DISTRIBUTED PARAMETERS ARE PARAMETERS:
     1     1     1     1     1     1     1     1     1     1
DISTRIBUTED PARAMETERS ARE PARAMETERS:
     1     1     1     1     1     1     1     1     1     1
DISTRIBUTED PARAMETERS ARE PARAMETERS:
     1     1     1     1     1     1     1     1     1     1
DISTRIBUTED PARAMETERS ARE PARAMETERS:
     1     1     1     1     1     1     1     1     1     1
DISTRIBUTED PARAMETERS ARE PARAMETERS:
     1     1     1     1     1     1     1     1     1     1
DISTRIBUTED PARAMETERS ARE PARAMETERS:
     1     1     1     1     1     1     1     1     1     1
DISTRIBUTED PARAMETERS ARE PARAMETERS:
     1     1     1     1     1     1     1     1     1     1
DISTRIBUTED PARAMETERS ARE PARAMETERS:
     1     1     1     1     1     1     1     1     1     1
DISTRIBUTED PARAMETERS ARE PARAMETERS:
     1     1     1     1     1     1     1     1     1     1
DISTRIBUTED PARAMETERS ARE PARAMETERS:
     1     1     1     1     1     1     1     1     1     1
DISTRIBUTED PARAMETERS ARE PARAMETERS:
     1     1     1     1     1     1     1     1     1     1
DISTRIBUTED PARAMETERS ARE PARAMETERS:
     1     1     1     1     1     1     1     1     1     1
DISTRIBUTED PARAMETERS ARE PARAMETERS:
     1     1     1     1     1     1     1     1     1     1
DISTRIBUTED PARAMETERS ARE PARAMETERS:
     1     1     1     1     1     1     1     1     1     1
DISTRIBUTED PARAMETERS ARE PARAMETERS:
     1     1     1     1     1     1     1     1     1     1
DISTRIBUTED PARAMETERS ARE PARAMETERS:
     1     1     1     1     1     1     1     1     1     1
DISTRIBUTED PARAMETERS ARE PARAMETERS:
     1     1     1     1     1     1     1     1     1     1
DISTRIBUTED PARAMETERS ARE PARAMETERS:
     1     1     1     1     1     1     1     1     1     1
DISTRIBUTED PARAMETERS ARE PARAMETERS:
     1     1     1     1     1     1     1     1     1     1
DISTRIBUTED PARAMETERS ARE PARAMETERS:
     1     1     1     1     1     1     1     1     1     1
DISTRIBUTED PARAMETERS ARE PARAMETERS:
     1     1     1     1     1     1     1     1     1     1
DISTRIBUTED PARAMETERS ARE PARAMETERS:
     1     1     1     1     1     1     1     1     1     1
DISTRIBUTED PARAMETERS ARE PARAMETERS:
     1     1     1     1     1     1     1     1     1     1
DISTRIBUTED PARAMETERS ARE PARAMETERS:
     1     1     1     1     1     1     1     1     1     1
DISTRIBUTED PARAMETERS ARE PARAMETERS:
     1     1     1     1     1     1     1     1     1     1
DISTRIBUTED PARAMETERS ARE PARAMETERS:
     1     1     1     1     1     1     1     1     1     1
DISTRIBUTED PARAMETERS ARE PARAMETERS:
     1     1     1     1     1     1     1     1     1     1
DISTRIBUTED PARAMETERS ARE PARAMETERS:
     1     1     1     1     1     1     1     1     1     1
DISTRIBUTED PARAMETERS ARE PARAMETERS:
     1     1     1     1     1     1     1     1     1     1
DISTRIBUTED PARAMETERS ARE PARAMETERS:
     1     1     1     1     1     1     1     1     1     1
DISTRIBUTED PARAMETERS ARE PARAMETERS:
     1     1     1     1     1     1     1     1     1     1
DISTRIBUTED PARAMETERS ARE PARAMETERS:
     1     1     1     1     1     1     1     1     1     1
DISTRIBUTED PARAMETERS ARE PARAMETERS:
     1     1     1     1     1     1     1     1     1     1
DISTRIBUTED PARAMETERS ARE PARAMETERS:
     1     1     1     1     1     1     1     1     1     1
DISTRIBUTED PARAMETERS ARE PARAMETERS:
     1     1     1     1     1     1     1     1     1     1
DISTRIBUTED PARAMETERS ARE PARAMETERS:
     1     1     1     1     1     1     1     1     1     1
DISTRIBUTED PARAMETERS ARE PARAMETERS:
     1     1     1     1     1     1     1     1     1     1
DISTRIBUTED PARAMETERS ARE PARAMETERS:
     1     1     1     1     1     1     1     1     1     1
DISTRIBUTED PARAMETERS ARE PARAMETERS:
     1     1     1     1     1     1     1     1     1     1
DISTRIBUTED PARAMETERS ARE PARAMETERS:
     1     1     1     1     1     1     1     1     1     1
DISTRIBUTED PARAMETERS ARE PARAMETERS:
     1     1     1     1     1     1     1     1     1     1
DISTRIBUTED PARAMETERS ARE PARAMETERS:
     1     1     1     1     1     1     1     1     1     1
DISTRIBUTED PARAMETERS ARE PARAMETERS:
     1     1     1     1     1     1     1     1     1     1
DISTRIBUTED PARAMETERS ARE PARAMETERS:
     1     1     1     1     1     1     1     1     1     1
DISTRIBUTED PARAMETERS ARE PARAMETERS:
     1     1     1     1     1     1     1     1     1     1
DISTRIBUTED PARAMETERS ARE PARAMETERS:
     1     1     1     1     1     1     1     1     1     1
DISTRIBUTED PARAMETERS ARE PARAMETERS:
     1     1     1     1     1     1     1     1     1     1
DISTRIBUTED PARAMETERS ARE PARAMETERS:
     1     1     1     1     1     1     1     1     1     1
DISTRIBUTED PARAMETERS ARE PARAMETERS:
     1     1     1     1     1     1     1     1     1     1
DISTRIBUTED PARAMETERS ARE PARAMETERS:
     1     1     1     1     1     1     1     1     1     1
DISTRIBUTED PARAMETERS ARE PARAMETERS:
     1     1     1     1     1     1     1     1     1     1
DISTRIBUTED PARAMETERS ARE PARAMETERS:
     1     1     1     1     1     1     1     1     1     1
DISTRIBUTED PARAMETERS ARE PARAMETERS:
     1     1     1     1     1     1     1     1     1     1
DISTRIBUTED PARAMETERS ARE PARAMETERS:
     1     1     1     1     1     1     1     1     1     1
DISTRIBUTED PARAMETERS ARE PARAMETERS:
     1     1     1     1     1     1     1     1     1     1
DISTRIBUTED PARAMETERS ARE PARAMETERS:
     1     1     1     1     1     1     1     1     1     1
DISTRIBUTED PARAMETERS ARE PARAMETERS:
     1     1     1     1     1     1     1     1     1     1
DISTRIBUTED PARAMETERS ARE PARAMETERS:
     1     1     1     1     1     1     1     1     1     1
DISTRIBUTED PARAMETERS ARE PARAMETERS:
     1     1     1     1     1     1     1     1     1     1
DISTRIBUTED PARAMETERS ARE PARAMETERS:
     1     1     1     1     1     1     1     1     1     1
DISTRIBUTED PARAMETERS ARE PARAMETERS:
     1     1     1     1     1     1     1     1     1     1
DISTRIBUTED PARAMETERS ARE PARAMETERS:
     1     1     1     1     1     1     1     1     1     1
DISTRIBUTED PARAMETERS ARE PARAMETERS:
     1     1     1     1     1     1     1     1     1     1
DISTRIBUTED PARAMETERS ARE PARAMETERS:
     1     1     1     1     1     1     1     1     1     1
DISTRIBUTED PARAMETERS ARE PARAMETERS:
     1     1     1     1     1     1     1     1     1     1
DISTRIBUTED PARAMETERS ARE PARAMETERS:
     1     1     1     1     1     1     1     1     1     1
DISTRIBUTED PARAMETERS ARE PARAMETERS:
     1     1     1     1     1     1     1     1     1     1
DISTRIBUTED PARAMETERS ARE PARAMETERS:
     1     1     1     1     1     1     1     1     1     1
DISTRIBUTED PARAMETERS ARE PARAMETERS:
     1     1     1     1     1     1     1     1     1     1
DISTRIBUTED PARAMETERS ARE PARAMETERS:
     1     1     1     1     1     1     1     1     1     1
DISTRIBUTED PARAMETERS ARE PARAMETERS:
     1     1     1     1     1     1     1     1     1     1
DISTRIBUTED PARAMETERS ARE PARAMETERS:
     1     1     1     1     1     1     1     1     1     1
DISTRIBUTED PARAMETERS ARE PARAMETERS:
     1     1     1     1     1     1     1     1     1     1
DISTRIBUTED PARAMETERS ARE PARAMETERS:
     1     1     1     1     1     1     1     1     1     1
DISTRIBUTED PARAMETERS ARE PARAMETERS:
     1     1     1     1     1     1     1     1     1     1
DISTRIBUTED PARAMETERS ARE PARAMETERS:
     1     1     1     1     1     1     1     1     1     1
DISTRIBUTED PARAMETERS ARE PARAMETERS:
     1     1     1     1     1     1     1     1     1     1
DISTRIBUTED PARAMETERS ARE PARAMETERS:
     1     1     1     1     1     1     1     1     1     1
DISTRIBUTED PARAMETERS ARE PARAMETERS:
     1     1     1     1     1     1     1     1     1     1
DISTRIBUTED PARAMETERS ARE PARAMETERS:
     1     1     1     1     1     1     1     1     1     1
DISTRIBUTED PARAMETERS ARE PARAMETERS:
     1     1     1     1     1     1     1     1     1     1
DISTRIBUTED PARAMETERS ARE PARAMETERS:
     1     1     1     1     1     1     1     1     1     1
DISTRIBUTED PARAMETERS ARE PARAMETERS:
     1     1     1     1     1     1     1     1     1     1
DISTRIBUTED PARAMETERS ARE PARAMETERS:
     1     1     1     1     1     1     1     1     1     1
DISTRIBUTED PARAMETERS ARE PARAMETERS:
     1     1     1     1     1     1     1     1     1     1
DISTRIBUTED PARAMETERS ARE PARAMETERS:
     1     1     1     1     1     1     1     1     1     1
DISTRIBUTED PARAMETERS ARE PARAMETERS:
     1     1     1     1     1     1     1     1     1     1
DISTRIBUTED PARAMETERS ARE PARAMETERS:
     1     1     1     1     1     1     1     1     1     1
DISTRIBUTED PARAMETERS ARE PARAMETERS:
     1     1     1     1     1     1     1     1     1     1
DISTRIBUTED PARAMETERS ARE PARAMETERS:
     1     1     1     1     1     1     1     1     1     1
DISTRIBUTED PARAMETERS ARE PARAMETERS:
     1     1     1     1     1     1     1     1     1     1
DISTRIBUTED PARAMETERS ARE PARAMETERS:
     1     1     1     1     1     1     1     1     1     1
DISTRIBUTED PARAMETERS ARE PARAMETERS:
     1     1     1     1     1     1     1     1     1     1
DISTRIBUTED PARAMETERS ARE PARAMETERS:
     1     1     1     1     1     1     1     1     1     1
DISTRIBUTED PARAMETERS ARE PARAMETERS:
     1     1     1     1     1     1     1     1     1     1
DISTRIBUTED PARAMETERS ARE PARAMETERS:
     1     1     1     1     1     1     1     1     1     1
DISTRIBUTED PARAMETERS ARE PARAMETERS:
     1     1     1     1     1     1     1     1     1     1
DISTRIBUTED PARAMETERS ARE PARAMETERS:
     1     1     1     1     1     1     1     1     1     1
DISTRIBUTED PARAMETERS ARE PARAMETERS:
     1     1     1     1     1     1     1     1     1     1
DISTRIBUTED PARAMETERS ARE PARAMETERS:
     1     1     1     1     1     1     1     1     1     1
DISTRIBUTED PARAMETERS ARE PARAMETERS:
     1     1     1     1     1     1     1     1     1     1
DISTRIBUTED PARAMETERS ARE PARAMETERS:
     1     1     1     1     1     1     1     1     1     1
DISTRIBUTED PARAMETERS ARE PARAMETERS:
     1     1     1     1     1     1     1     1     1     1
DISTRIBUTED PARAMETERS ARE PARAMETERS:
     1     1     1     1     1     1     1     1     1     1
DISTRIBUTED PARAMETERS ARE PARAMETERS:
     1     1     1     1     1     1     1     1     1     1
DISTRIBUTED PARAMETERS ARE PARAMETERS:
     1     1     1     1     1     1     1     1     1     1
DISTRIBUTED PARAMETERS ARE PARAMETERS:
     1     1     1     1     1     1     1     1     1     1
DISTRIBUTED PARAMETERS ARE PARAMETERS:
     1     1     1     1     1     1     1     1     1     1
DISTRIBUTED PARAMETERS ARE PARAMETERS:
     1     1     1     1     1     1     1     1     1     1
DISTRIBUTED PARAMETERS ARE PARAMETERS:
     1     1     1     1     1     1     1     1     1     1
DISTRIBUTED PARAMETERS ARE PARAMETERS:
     1     1     1     1     1     1     1     1     1     1
DISTRIBUTED PARAMETERS ARE PARAMETERS:
     1     1     1     1     1     1     1     1     1     1
DISTRIBUTED PARAMETERS ARE PARAMETERS:
     1     1     1     1     1     1     1     1     1     1
DISTRIBUTED PARAMETERS ARE PARAMETERS:
     1     1     1     1     1     1     1     1     1     1
DISTRIBUTED PARAMETERS ARE PARAMETERS:
     1     1     1     1     1     1     1     1     1     1
DISTRIBUTED PARAMETERS ARE PARAMETERS:
     1     1     1     1     1     1     1     1     1     1
DISTRIBUTED PARAMETERS ARE PARAMETERS:
     1     1     1     1     1     1     1     1     1     1
DISTRIBUTED PARAMETERS ARE PARAMETERS:
     1     1     1     1     1     1     1     1     1     1
DISTRIBUTED PARAMETERS ARE PARAMETERS:
     1     1     1     1     1     1     1     1     1     1
DISTRIBUTED PARAMETERS ARE PARAMETERS:
     1     1     1     1     1     1     1     1     1     1
DISTRIBUTED PARAMETERS ARE PARAMETERS:
     1     1     1     1     1     1     1     1     1     1
DISTRIBUTED PARAMETERS ARE PARAMETERS:
     1     1     1     1     1     1     1     1     1     1
DISTRIBUTED PARAMETERS ARE PARAMETERS:
     1     1     1     1     1     1     1     1     1     1
DISTRIBUTED PARAMETERS ARE PARAMETERS:
     1     1     1     1     1     1     1     1     1     1
DISTRIBUTED PARAMETERS ARE PARAMETERS:
     1     1     1     1     1     1     1     1     1     1
DISTRIBUTED PARAMETERS ARE PARAMETERS:
     1     1     1     1     1     1     1     1     1     1
DISTRIBUTED PARAMETERS ARE PARAMETERS:
     1     1     1     1     1     1     1     1     1     1
DISTRIBUTED PARAMETERS ARE PARAMETERS:
     1     1     1     1     1     1     1     1     1     1
DISTRIBUTED PARAMETERS ARE PARAMETERS:
     1     1     1     1     1     1     1     1     1     1
DISTRIBUTED PARAMETERS ARE PARAMETERS:
     1     1     1     1     1     1     1     1     1     1
DISTRIBUTED PARAMETERS ARE PARAMETERS:
     1     1     1     1     1     1     1     1     1     1
DISTRIBUTED PARAMETERS ARE PARAMETERS:
     1     1     1     1     1     1     1     1     1     1
DISTRIBUTED PARAMETERS ARE PARAMETERS:
     1     1     1     1     1     1     1     1     1     1
DISTRIBUTED PARAMETERS ARE PARAMETERS:
     1     1     1     1     1     1     1     1     1     1
DISTRIBUTED PARAMETERS ARE PARAMETERS:
     1     1     1     1     1     1     1     1     1     1
DISTRIBUTED PARAMETERS ARE PARAMETERS:
     1     1     1     1     1     1     1     1     1     1
DISTRIBUTED PARAMETERS ARE PARAMETERS:
     1     1     1     1     1     1     1     1     1     1
DISTRIBUTED PARAMETERS ARE PARAMETERS:
     1     1     1     1     1     1     1     1     1     1
DISTRIBUTED PARAMETERS ARE PARAMETERS:
     1     1     1     1     1     1     1     1     1     1
DISTRIBUTED PARAMETERS ARE PARAMETERS:
     1     1     1     1     1     1     1     1     1     1
DISTRIBUTED PARAMETERS ARE PARAMETERS:
     1     1     1     1     1     1     1     1     1     1
DISTRIBUTED PARAMETERS ARE PARAMETERS:
     1     1     1     1     1     1     1     1     1     1
DISTRIBUTED PARAMETERS ARE PARAMETERS:
     1     1     1     1     1     1     1     1     1     1
DISTRIBUTED PARAMETERS ARE PARAMETERS:
     1     1     1     1     1     1     1     1     1     1
DISTRIBUTED PARAMETERS ARE PARAMETERS:
     1     1     1     1     1     1     1     1     1     1
DISTRIBUTED PARAMETERS ARE PARAMETERS:
     1     1     1     1     1     1     1     1     1     1
DISTRIBUTED PARAMETERS ARE PARAMETERS:
     1     1     1     1     1     1     1     1     1     1
DISTRIBUTED PARAMETERS ARE PARAMETERS:
     1     1     1     1     1     1     1     1     1     1
DISTRIBUTED PARAMETERS ARE PARAMETERS:
     1     1     1     1     1     1     1     1     1     1
DISTRIBUTED PARAMETERS ARE PARAMETERS:
     1     1     1     1     1     1     1     1     1     1
DISTRIBUTED PARAMETERS ARE PARAMETERS:
     1     1     1     1     1     1     1     1     1     1
DISTRIBUTED PARAMETERS ARE PARAMETERS:
     1     1     1     1     1     1     1     1     1     1
DISTRIBUTED PARAMETERS ARE PARAMETERS:
     1     1     1     1     1     1     1     1     1     1
DISTRIBUTED PARAMETERS ARE PARAMETERS:
     1     1     1     1     1     1     1     1     1     1
DISTRIBUTED PARAMETERS ARE PARAMETERS:
     1     1     1     1     1     1     1     1     1     1
DISTRIBUTED PARAMETERS ARE PARAMETERS:
     1     1     1     1     1     1     1     1     1     1
DISTRIBUTED PARAMETERS ARE PARAMETERS:
     1     1     1     1     1     1     1     1     1     1
DISTRIBUTED PARAMETERS ARE PARAMETERS:
     1     1     1     1     1     1     1     1     1     1
DISTRIBUTED PARAMETERS ARE PARAMETERS:
     1     1     1     1     1     1     1     1     1     1
DISTRIBUTED PARAMETERS ARE PARAMETERS:
     1     1     1     1     1     1     1     1     1     1
DISTRIBUTED PARAMETERS ARE PARAMETERS:
     1     1     1     1     1     1     1     1     1     1
DISTRIBUTED PARAMETERS ARE PARAMETERS:
     1     1     1     1     1     1     1     1     1     1
DISTRIBUTED PARAMETERS ARE PARAMETERS:
     1     1     1     1     1     1     1     1     1     1
DISTRIBUTED PARAMETERS ARE PARAMETERS:
     1     1     1     1     1     1     1     1     1     1
DISTRIBUTED PARAMETERS ARE PARAMETERS:
     1     1     1     1     1     1     1     1     1     1
DISTRIBUTED PARAMETERS ARE PARAMETERS:
     1     1     1     1     1     1     1     1     1     1
DISTRIBUTED PARAMETERS ARE PARAMETERS:
     1     1     1     1     1     1     1     1     1     1
DISTRIBUTED PARAMETERS ARE PARAMETERS:
     1     1     1     1     1     1     1     1     1     1
DISTRIBUTED PARAMETERS ARE PARAMETERS:
     1     1     1     1     1     1     1     1     1     1
DISTRIBUTED PARAMETERS ARE PARAMETERS:
     1     1     1     1     1     1     1     1     1     1
DISTRIBUTED PARAMETERS ARE PARAMETERS:
     1     1     1     1     1     1     1     1     1     1
DISTRIBUTED PARAMETERS ARE PARAMETERS:
     1     1     1     1     1     1     1     1     1     1
DISTRIBUTED PARAMETERS ARE PARAMETERS:
     1     1     1     1     1     1     1     1     1     1
DISTRIBUTED PARAMETERS ARE PARAMETERS:
     1     1     1     1     1     1     1     1     1     1
DISTRIBUTED PARAMETERS ARE PARAMETERS:
     1     1     1     1     1     1     1     1     1     1
DISTRIBUTED PARAMETERS ARE PARAMETERS:
     1     1     1     1     1     1     1     1     1     1
DISTRIBUTED PARAMETERS ARE PARAMETERS:
     1     1     1     1     1     1     1     1     1     1
DISTRIBUTED PARAMETERS ARE PARAMETERS:
     1     1     1     1     1     1     1     1     1     1
DISTRIBUTED PARAMETERS ARE PARAMETERS:
     1     1     1     1     1     1     1     1     1     1
DISTRIBUTED PARAMETERS ARE PARAMETERS:
     1     1     1     1     1     1     1     1     1     1
DISTRIBUTED PARAMETERS ARE PARAMETERS:
     1     1     1     1     1     1     1     1     1     1
DISTRIBUTED PARAMETERS ARE PARAMETERS:
     1     1     1     1     1     1     1     1     1     1
DISTRIBUTED PARAMETERS ARE PARAMETERS:
     1     1     1     1     1     1     1     1     1     1
DISTRIBUTED PARAMETERS ARE PARAMETERS:
     1     1     1     1     1     1     1     1     1     1
DISTRIBUTED PARAMETERS ARE PARAMETERS:
     1     1     1     1     1     1     1     1     1     1
DISTRIBUTED PARAMETERS ARE PARAMETERS:
     1     1     1     1     1     1     1     1     1     1
DISTRIBUTED PARAMETERS ARE PARAMETERS:
     1     1     1     1     1     1     1     1     1     1
DISTRIBUTED PARAMETERS ARE PARAMETERS:
     1     1     1     1     1     1     1     1     1     1
DISTRIBUTED PARAMETERS ARE PARAMETERS:
     1     1     1     1     1     1     1     1     1     1
DISTRIBUTED PARAMETERS ARE PARAMETERS:
     1     1     1     1     1     1     1     1     1     1
DISTRIBUTED PARAMETERS ARE PARAMETERS:
     1     1     1     1     1     1     1     1     1     1
DISTRIBUTED PARAMETERS ARE PARAMETERS:
     1     1     1     1     1     1     1     1     1     1
DISTRIBUTED PARAMETERS ARE PARAMETERS:
     1     1     1     1     1     1     1     1     1     1
DISTRIBUTED PARAMETERS ARE PARAMETERS:
     1     1     1     1     1     1     1     1     1     1
DISTRIBUTED PARAMETERS ARE PARAMETERS:
     1     1     1     1     1     1     1     1     1     1
DISTRIBUTED PARAMETERS ARE PARAMETERS:
     1     1     1     1     1     1     1     1     1     1
DISTRIBUTED PARAMETERS ARE PARAMETERS:
     1     1     1     1     1     1     1     1     1     1
DISTRIBUTED PARAMETERS ARE PARAMETERS:
     1     1     1     1     1     1     1     1     1     1
DISTRIBUTED PARAMETERS ARE PARAMETERS:
     1     1     1     1     1     1     1     1     1     1
DISTRIBUTED PARAMETERS ARE PARAMETERS:
     1     1     1     1     1     1     1     1     1     1
DISTRIBUTED PARAMETERS ARE PARAMETERS:
     1     1     1     1     1     1     1     1     1     1
DISTRIBUTED PARAMETERS ARE PARAMETERS:
     1     1     1     1     1     1     1     1     1     1
DISTRIBUTED PARAMETERS ARE PARAMETERS:
     1     1     1     1     1     1     1     1     1     1
DISTRIBUTED PARAMETERS ARE PARAMETERS:
     1     1     1     1     1     1     1     1     1     1
DISTRIBUTED PARAMETERS ARE PARAMETERS:
     1     1     1     1     1     1     1     1     1     1
DISTRIBUTED PARAMETERS ARE PARAMETERS:
     1     1     1     1     1     1     1     1     1     1
DISTRIBUTED PARAMETERS ARE PARAMETERS:
     1     1     1     1     1     1     1     1     1     1
DISTRIBUTED PARAMETERS ARE PARAMETERS:
     1     1     1     1     1     1     1     1     1     1
DISTRIBUTED PARAMETERS ARE PARAMETERS:
     1     1     1     1     1     1     1     1     1     1
DISTRIBUTED PARAMETERS ARE PARAMETERS:
     1     1     1     1     1     1     1     1     1     1
DISTRIBUTED PARAMETERS ARE PARAMETERS:
     1     1     1     1     1     1     1     1     1     1
DISTRIBUTED PARAMETERS ARE PARAMETERS:
     1     1     1     1     1     1     1     1     1     1
DISTRIBUTED PARAMETERS ARE PARAMETERS:
     1     1     1     1     1     1     1     1     1     1
DISTRIBUTED PARAMETERS ARE PARAMETERS:
     1     1     1     1     1     1     1     1     1     1
DISTRIBUTED PARAMETERS ARE PARAMETERS:
     1     1     1     1     1     1     1     1     1     1
DISTRIBUTED PARAMETERS ARE PARAMETERS:
     1     1     1     1     1     1     1     1     1     1

 INFORMATION ON PARAMETERS LISTED IN ADJ FILE

    NAME     LN
 ----------  -----  
 HK_Par        0
1
                            STRESS PERIOD NO.    1, LENGTH =   1.000000    
                            -----------------------------------------------

                              NUMBER OF TIME STEPS =     1

                               MULTIPLIER FOR DELT =     1.000

                            INITIAL TIME STEP SIZE =   1.000000    

 WELL NO.  LAYER   ROW   COL   STRESS RATE         
 --------------------------------------------------
      1      1     27     20      -4994.    

      1 WELL 



                           RECHARGE
 READING ON UNIT  713 WITH FORMAT: (FREE)              
 
 SOLVING FOR HEAD 

 OUTPUT CONTROL FOR STRESS PERIOD    1   TIME STEP    1
    PRINT BUDGET
    SAVE HEAD FOR ALL LAYERS
    SAVE BUDGET
 UBDSV2 SAVING "   CONSTANT HEAD" ON UNIT 740 AT TIME STEP  1, STRESS PERIOD   1
 UBDSV1 SAVING "FLOW RIGHT FACE " ON UNIT 740 AT TIME STEP  1, STRESS PERIOD   1
 UBDSV1 SAVING "FLOW FRONT FACE " ON UNIT 740 AT TIME STEP  1, STRESS PERIOD   1
 UBDSV4 SAVING "           WELLS" ON UNIT 740 AT TIME STEP  1, STRESS PERIOD   1
 UBDSV3 SAVING "        RECHARGE" ON UNIT 740 AT TIME STEP  1, STRESS PERIOD   1

 HEAD WILL BE SAVED ON UNIT  702 AT END OF TIME STEP    1, STRESS PERIOD    1
1
  VOLUMETRIC BUDGET FOR ENTIRE MODEL AT END OF TIME STEP    1, STRESS PERIOD   1
  ------------------------------------------------------------------------------

     CUMULATIVE VOLUMES      L**3       RATES FOR THIS TIME STEP      L**3/T
     ------------------                 ------------------------

           IN:                                      IN:
           ---                                      ---
             STORAGE =           0.0000               STORAGE =           0.0000
       CONSTANT HEAD =           0.0000         CONSTANT HEAD =           0.0000
               WELLS =           0.0000                 WELLS =           0.0000
            RECHARGE =       23855.9980              RECHARGE =       23855.9980

            TOTAL IN =       23855.9980              TOTAL IN =       23855.9980

          OUT:                                     OUT:
          ----                                     ----
             STORAGE =           0.0000               STORAGE =           0.0000
       CONSTANT HEAD =       18862.0801         CONSTANT HEAD =       18862.0801
               WELLS =        4993.9199                 WELLS =        4993.9199
            RECHARGE =           0.0000              RECHARGE =           0.0000

           TOTAL OUT =       23856.0000             TOTAL OUT =       23856.0000

            IN - OUT =      -1.9531E-03              IN - OUT =      -1.9531E-03

 PERCENT DISCREPANCY =           0.00     PERCENT DISCREPANCY =           0.00






         TIME SUMMARY AT END OF TIME STEP    1 IN STRESS PERIOD    1
                    SECONDS     MINUTES      HOURS       DAYS        YEARS
                    -----------------------------------------------------------
   TIME STEP LENGTH  86400.      1440.0      24.000      1.0000     2.73785E-03
 STRESS PERIOD TIME  86400.      1440.0      24.000      1.0000     2.73785E-03
         TOTAL TIME  86400.      1440.0      24.000      1.0000     2.73785E-03
1
  START OF ADJOINT STATE CALCULATIONS
 SUM OF POSITIVE RATES= 1.00000E+00    SUM OF NEGATIVE RATES= 1.00000E+00
               PERCENT DISCREPANCY=-3.14E-05
        SENSITIVITY CALCULATION FOR GLOBAL OBSERVATION  1 hed1        
 SUM OF POSITIVE RATES= 1.00000E+00    SUM OF NEGATIVE RATES= 9.99987E-01
               PERCENT DISCREPANCY= 1.33E-03
        SENSITIVITY CALCULATION FOR GLOBAL OBSERVATION  2 hed2        
 SUM OF POSITIVE RATES= 1.00000E+00    SUM OF NEGATIVE RATES= 9.99968E-01
               PERCENT DISCREPANCY= 3.23E-03
        SENSITIVITY CALCULATION FOR GLOBAL OBSERVATION  3 hed3        
 SUM OF POSITIVE RATES= 1.00000E+00    SUM OF NEGATIVE RATES= 1.00001E+00
               PERCENT DISCREPANCY=-5.53E-04
        SENSITIVITY CALCULATION FOR GLOBAL OBSERVATION  4 hed4        
 SUM OF POSITIVE RATES= 1.00000E+00    SUM OF NEGATIVE RATES= 9.99969E-01
               PERCENT DISCREPANCY= 3.07E-03
        SENSITIVITY CALCULATION FOR GLOBAL OBSERVATION  5 hed5        
 SUM OF POSITIVE RATES= 1.00000E+00    SUM OF NEGATIVE RATES= 9.99966E-01
               PERCENT DISCREPANCY= 3.37E-03
        SENSITIVITY CALCULATION FOR GLOBAL OBSERVATION  6 hed6        
 SUM OF POSITIVE RATES= 1.00000E+00    SUM OF NEGATIVE RATES= 9.99996E-01
               PERCENT DISCREPANCY= 4.30E-04
        SENSITIVITY CALCULATION FOR GLOBAL OBSERVATION  7 hed7        
 SUM OF POSITIVE RATES= 1.00000E+00    SUM OF NEGATIVE RATES= 9.99971E-01
               PERCENT DISCREPANCY= 2.88E-03
        SENSITIVITY CALCULATION FOR GLOBAL OBSERVATION  8 hed8        
 SUM OF POSITIVE RATES= 1.00000E+00    SUM OF NEGATIVE RATES= 9.99996E-01
               PERCENT DISCREPANCY= 3.57E-04
        SENSITIVITY CALCULATION FOR GLOBAL OBSERVATION  9 hed9        
 SUM OF POSITIVE RATES= 1.00000E+00    SUM OF NEGATIVE RATES= 1.00000E+00
               PERCENT DISCREPANCY=-3.94E-04
        SENSITIVITY CALCULATION FOR GLOBAL OBSERVATION 10 hed10       
 SUM OF POSITIVE RATES= 1.00000E+00    SUM OF NEGATIVE RATES= 9.99951E-01
               PERCENT DISCREPANCY= 4.86E-03
        SENSITIVITY CALCULATION FOR GLOBAL OBSERVATION 11 hed11       
 SUM OF POSITIVE RATES= 1.00000E+00    SUM OF NEGATIVE RATES= 9.99968E-01
               PERCENT DISCREPANCY= 3.24E-03
        SENSITIVITY CALCULATION FOR GLOBAL OBSERVATION 12 hed12       
 SUM OF POSITIVE RATES= 1.00000E+00    SUM OF NEGATIVE RATES= 1.00000E+00
               PERCENT DISCREPANCY=-1.78E-04
        SENSITIVITY CALCULATION FOR GLOBAL OBSERVATION 13 hed13       
 SUM OF POSITIVE RATES= 1.00000E+00    SUM OF NEGATIVE RATES= 9.99999E-01
               PERCENT DISCREPANCY= 9.33E-05
        SENSITIVITY CALCULATION FOR GLOBAL OBSERVATION 14 hed14       
 SUM OF POSITIVE RATES= 1.00000E+00    SUM OF NEGATIVE RATES= 9.99997E-01
               PERCENT DISCREPANCY= 2.81E-04
        SENSITIVITY CALCULATION FOR GLOBAL OBSERVATION 15 hed15       
 SUM OF POSITIVE RATES= 1.00000E+00    SUM OF NEGATIVE RATES= 9.99983E-01
               PERCENT DISCREPANCY= 1.70E-03
        SENSITIVITY CALCULATION FOR GLOBAL OBSERVATION 16 hed16       
 SUM OF POSITIVE RATES= 1.00000E+00    SUM OF NEGATIVE RATES= 9.99983E-01
               PERCENT DISCREPANCY= 1.68E-03
        SENSITIVITY CALCULATION FOR GLOBAL OBSERVATION 17 hed17       
 SUM OF POSITIVE RATES= 1.00000E+00    SUM OF NEGATIVE RATES= 9.99995E-01
               PERCENT DISCREPANCY= 5.39E-04
        SENSITIVITY CALCULATION FOR GLOBAL OBSERVATION 18 hed18       
 SUM OF POSITIVE RATES= 1.00000E+00    SUM OF NEGATIVE RATES= 9.99996E-01
               PERCENT DISCREPANCY= 3.79E-04
        SENSITIVITY CALCULATION FOR GLOBAL OBSERVATION 19 hed19       
 SUM OF POSITIVE RATES= 1.00000E+00    SUM OF NEGATIVE RATES= 1.00000E+00
               PERCENT DISCREPANCY=-1.06E-04
        SENSITIVITY CALCULATION FOR GLOBAL OBSERVATION 20 hed20       
 SUM OF POSITIVE RATES= 1.00000E+00    SUM OF NEGATIVE RATES= 9.99999E-01
               PERCENT DISCREPANCY= 1.34E-04
        SENSITIVITY CALCULATION FOR GLOBAL OBSERVATION 21 hed21       
 SUM OF POSITIVE RATES= 1.00000E+00    SUM OF NEGATIVE RATES= 9.99987E-01
               PERCENT DISCREPANCY= 1.33E-03
        SENSITIVITY CALCULATION FOR GLOBAL OBSERVATION 22 hed22       
 SUM OF POSITIVE RATES= 1.00000E+00    SUM OF NEGATIVE RATES= 1.00000E+00
               PERCENT DISCREPANCY= 3.22E-05
        SENSITIVITY CALCULATION FOR GLOBAL OBSERVATION 23 hed23       
 SUM OF POSITIVE RATES= 1.00000E+00    SUM OF NEGATIVE RATES= 1.00000E+00
               PERCENT DISCREPANCY=-2.26E-04
        SENSITIVITY CALCULATION FOR GLOBAL OBSERVATION 24 hed24       
 SUM OF POSITIVE RATES= 1.00000E+00    SUM OF NEGATIVE RATES= 1.00000E+00
               PERCENT DISCREPANCY= 4.73E-06
        SENSITIVITY CALCULATION FOR GLOBAL OBSERVATION 25 hed25       
### WARNING RATE DISCREPANCIES MAY LEAD TO INACCURATE SENSITIVITIES
    MAXIMUM DISCREPANCY = 4.86E-03 PERCENT

 HEAD AND DRAWDOWN OBSERVATIONS
 OBSERVATION       OBSERVED           SIMULATED
   NAME              VALUE              VALUE             DIFFERENCE
 --------------------------------------------------------------------
 hed1            2.1255583763        2.1256191730      -6.07967376709E-05
 hed2            11.409017563        11.408995628       2.19345092773E-05
 hed3            21.756053925        21.755977631       7.62939453125E-05
 hed4            23.352603912        23.352970123      -3.66210937500E-04
 hed5            13.867703438        13.867605209       9.82284545898E-05
 hed6            9.0558099747        9.0557012558       1.08718872070E-04
 hed7            17.255193710        17.254894257       2.99453735352E-04
 hed8            23.825366974        23.825302124       6.48498535156E-05
 hed9            27.294858932        27.293636322       1.22261047363E-03
 hed10           27.647617340        27.646656036       9.61303710938E-04
 hed11           25.732852936        25.732791901       6.10351562500E-05
 hed12           24.589410782        24.589345932       6.48498535156E-05
 hed13           23.596542358        23.595727921       8.14437866211E-04
 hed14           26.651674271        26.651056290       6.17980957031E-04
 hed15           27.208415985        27.207794189       6.21795654297E-04
 hed16           14.048094749        14.047979355       1.15394592285E-04
 hed17           19.638608932        19.638559341       4.95910644531E-05
 hed18           16.494268417        16.494136810       1.31607055664E-04
 hed19           17.359035492        17.358987808       4.76837158203E-05
 hed20           13.638106346        13.638040543       6.58035278320E-05
 hed21           15.357893944        15.357845306       4.86373901367E-05
 hed22           10.434610367        10.434598923       1.14440917969E-05
 hed23           10.520684242        10.520660400       2.38418579102E-05
 hed24           8.3430852890        8.3430719376       1.33514404297E-05
 hed25           6.0562953949        6.0562925339       2.86102294922E-06

 HEAD/DRAWDOWN SUM OF SQUARED DIFFERENCE:    4.16106E-06

 Run end date and time (yyyy/mm/dd hh:mm:ss): 2018/11/20 12:18:40
 Elapsed run time:  0.740 Seconds

