                                  MODFLOW-ADJOINT Version 0.96 07/14/2007
      U.S. GEOLOGICAL SURVEY MODULAR FINITE-DIFFERENCE GROUND-WATER FLOW MODEL
                             VERSION 1.11 08/08/2013

 LIST FILE: example_mild.lst
                         UNIT  701

 OPENING example_mild.hds
 FILE TYPE:DATA(BINARY)   UNIT  702   STATUS:UNKNOWN
 FORMAT:UNFORMATTED            ACCESS:SEQUENTIAL          

 OPENING example_mild.flw
 FILE TYPE:DATA(BINARY)   UNIT  740   STATUS:UNKNOWN
 FORMAT:UNFORMATTED            ACCESS:SEQUENTIAL          

 OPENING example_mild.hbs
 FILE TYPE:DATA   UNIT  714   STATUS:UNKNOWN
 FORMAT:FORMATTED              ACCESS:SEQUENTIAL          
# Input Files                                                                                                                                                                                                                                                                                               

 OPENING example_mild.dis
 FILE TYPE:DIS   UNIT  707   STATUS:OLD    
 FORMAT:FORMATTED              ACCESS:SEQUENTIAL          

 OPENING example_mild.ba6
 FILE TYPE:BAS6   UNIT  708   STATUS:OLD    
 FORMAT:FORMATTED              ACCESS:SEQUENTIAL          

 OPENING example_mild.lpf
 FILE TYPE:LPF   UNIT  709   STATUS:OLD    
 FORMAT:FORMATTED              ACCESS:SEQUENTIAL          

 OPENING example_mild.zon
 FILE TYPE:ZONE   UNIT  720   STATUS:OLD    
 FORMAT:FORMATTED              ACCESS:SEQUENTIAL          

 OPENING example_mild.oc
 FILE TYPE:OC   UNIT  710   STATUS:OLD    
 FORMAT:FORMATTED              ACCESS:SEQUENTIAL          

 OPENING example_mild.mlt
 FILE TYPE:MULT   UNIT  722   STATUS:OLD    
 FORMAT:FORMATTED              ACCESS:SEQUENTIAL          

 OPENING example_mild.rch
 FILE TYPE:RCH   UNIT  713   STATUS:OLD    
 FORMAT:FORMATTED              ACCESS:SEQUENTIAL          

 OPENING example_mild.wel
 FILE TYPE:WEL   UNIT  712   STATUS:OLD    
 FORMAT:FORMATTED              ACCESS:SEQUENTIAL          

 OPENING example_mild.pcg
 FILE TYPE:PCG   UNIT  711   STATUS:OLD    
 FORMAT:FORMATTED              ACCESS:SEQUENTIAL          

 OPENING example_mild.hob
 FILE TYPE:HOB   UNIT  703   STATUS:OLD    
 FORMAT:FORMATTED              ACCESS:SEQUENTIAL          

 BAS -- BASIC PACKAGE, VERSION 7, 5/2/2005 INPUT READ FROM UNIT  708
 
 MODFLOW was compiled using mixed precision
 Precision of REAL variables:           6
 Precision of DOUBLE PRECISION variables:          15

 DISCRETIZATION INPUT DATA READ FROM UNIT  707
 # MF2K DISCRETIZATION FILE
 #
 #
 # NLAY NROW NCOL NPER TIMEUNITS LENUNITS
    1 LAYERS        50 ROWS        50 COLUMNS
    1 STRESS PERIOD(S) IN SIMULATION
 MODEL TIME UNIT IS DAYS
 MODEL LENGTH UNIT IS METERS
  Confining bed flag for each layer:
   0



                               DELR
 READING ON UNIT  707 WITH FORMAT: (FREE)              



                               DELC
 READING ON UNIT  707 WITH FORMAT: (FREE)              



           TOP ELEVATION OF LAYER 1
 READING ON UNIT  707 WITH FORMAT: (FREE)              



             MODEL LAYER BOTTOM EL. FOR LAYER   1
 READING ON UNIT  707 WITH FORMAT: (FREE)              


 STRESS PERIOD     LENGTH       TIME STEPS     MULTIPLIER FOR DELT    SS FLAG
 ----------------------------------------------------------------------------
        1         1.000000          1                    1.000         SS

 STEADY-STATE SIMULATION



 
 #Example                                                                        
 THE FREE FORMAT OPTION HAS BEEN SELECTED



                     BOUNDARY ARRAY FOR LAYER   1
 READING ON UNIT  708 WITH FORMAT: (FREE)              

 AQUIFER HEAD WILL BE SET TO  -999.00     AT ALL NO-FLOW NODES (IBOUND=0).



                       INITIAL HEAD FOR LAYER   1
 READING ON UNIT  708 WITH FORMAT: (FREE)              

 OUTPUT CONTROL IS SPECIFIED ONLY AT TIME STEPS FOR WHICH OUTPUT IS DESIRED
 COMPACT CELL-BY-CELL BUDGET FILES WILL BE WRITTEN
 AUXILIARY DATA WILL BE SAVED IN CELL-BY-CELL BUDGET FILES
 HEAD PRINT FORMAT CODE IS   0    DRAWDOWN PRINT FORMAT CODE IS   0
 HEADS WILL BE SAVED ON UNIT  702    DRAWDOWNS WILL BE SAVED ON UNIT    0

 ZONE OPTION, INPUT READ FROM UNIT  720
 # Zone (ZONE) File
     1 ZONE ARRAYS

 MULTIPLIER OPTION, INPUT READ FROM UNIT  722
 # Multiplier (MULT)
   1 MULTIPLIER ARRAYS



            MULT. ARRAY: HK_Par    
 READING ON UNIT  722 WITH FORMAT: (FREE)              

            1           2           3           4           5           6           7           8           9          10
           11          12          13          14          15          16          17          18          19          20
           21          22          23          24          25          26          27          28          29          30
           31          32          33          34          35          36          37          38          39          40
           41          42          43          44          45          46          47          48          49          50
 ........................................................................................................................
   1    124.5       126.6       126.0       122.4       115.8       106.5       95.48       84.15       74.14       66.47    
        61.17       57.80       55.82       54.80       54.44       54.55       55.10       56.13       57.67       59.68    
        61.90       63.98       65.76       67.31       68.78       70.32       72.02       73.90       76.00       78.34    
        80.94       83.82       87.02       90.57       94.50       98.83       103.6       108.8       114.4       120.7    
        127.5       135.1       143.4       152.4       161.4       169.1       174.0       175.0       172.0       165.4    
   2    126.7       129.5       129.3       125.6       118.4       108.1       95.43       82.23       70.85       62.69    
        57.47       54.41       52.78       52.05       51.85       51.98       52.40       53.22       54.61       56.64    
        59.05       61.30       63.19       64.84       66.46       68.19       70.09       72.18       74.47       77.00    
        79.79       82.90       86.37       90.25       94.57       99.38       104.7       110.5       116.9       123.9    
        131.7       140.4       150.2       161.3       172.8       182.9       189.1       190.2       185.8       176.9    
   3    126.7       129.6       129.5       125.8       118.5       107.9       94.63       80.12       67.82       59.79    
        55.09       52.59       51.47       51.14       51.16       51.28       51.42       51.73       52.58       54.30    
        56.78       59.12       61.11       62.97       64.89       66.94       69.13       71.46       73.94       76.63    
        79.58       82.86       86.55       90.72       95.41       100.7       106.5       113.0       120.1       127.9    
        136.5       146.2       157.2       169.8       183.9       196.5       203.7       204.4       198.7       187.6    
   4    124.2       126.8       126.3       122.5       115.3       105.0       92.25       77.42       65.04       57.92    
        54.05       52.29       51.83       52.07       52.48       52.70       52.54       52.13       51.95       52.77    
        55.12       57.46       59.69       61.96       64.35       66.82       69.33       71.88       74.51       77.30    
        80.34       83.73       87.59       92.00       97.03       102.7       109.1       116.2       124.0       132.5    
        142.0       152.5       164.3       178.0       194.2       208.7       216.2       216.5       209.5       196.8    
   5    119.7       121.2       120.1       115.8       108.6       98.67       86.64       73.89       63.61       57.37    
        54.29       53.34       53.74       54.82       55.97       56.64       56.46       55.39       53.86       52.81    
        53.91       56.72       59.48       62.39       65.33       68.19       70.94       73.59       76.25       79.02    
        82.04       85.46       89.41       94.02       99.36       105.5       112.4       120.1       128.6       137.9    
        148.1       159.4       172.2       186.8       202.9       217.1       225.1       225.2       217.6       203.8    
   6    113.5       113.9       111.8       107.1       100.0       90.83       80.47       70.36       62.39       57.49    
        55.39       55.42       56.93       59.26       61.71       63.53       64.09       63.09       60.76       58.06    
        56.72       58.87       62.04       65.37       68.57       71.51       74.20       76.71       79.17       81.74    
        84.60       87.93       91.91       96.66       102.3       108.9       116.3       124.7       133.8       143.7    
        154.6       166.5       179.8       194.5       209.8       222.9       230.5       230.6       222.8       208.6    
   7    106.6       105.7       102.8       97.82       91.08       83.07       74.65       66.94       61.10       57.72    
        56.80       58.03       60.95       65.02       69.49       73.48       76.05       76.54       74.81       71.38    
        67.64       67.70       69.68       72.27       74.84       77.18       79.29       81.26       83.23       85.37    
        87.90       91.01       94.91       99.77       105.7       112.7       120.7       129.6       139.3       149.7    
        161.0       173.1       186.4       200.5       214.6       226.4       233.2       233.1       225.4       211.3    
   8    99.45       97.42       93.90       88.92       82.79       76.04       69.40       63.68       59.64       57.71    
        58.05       60.60       65.16       71.38       78.61       85.87       91.97       95.83       96.88       95.29    
        90.56       85.46       83.88       83.86       84.47       85.29       86.16       87.12       88.25       89.72    
        91.72       94.48       98.21       103.1       109.3       116.7       125.3       134.7       144.8       155.4    
        166.6       178.4       191.0       204.1       216.8       227.3       233.4       233.2       225.8       212.2    
   9    92.65       89.75       85.82       80.97       75.52       69.92       64.75       60.59       57.98       57.29    
        58.78       62.59       68.81       77.36       87.80       99.15       109.9       118.4       123.3       123.9    
        119.8       110.6       103.7       99.51       96.96       95.39       94.44       93.96       93.96       94.53    
        95.84       98.10       101.6       106.4       112.8       120.7       129.8       139.6       149.8       160.2    
        170.7       181.6       193.0       204.7       215.9       225.3       230.9       231.0       224.4       211.6    
  10    86.51       82.97       78.81       74.19       69.36       64.72       60.69       57.70       56.16       56.42    
        58.79       63.60       71.21       81.89       95.51       111.1       126.8       140.0       148.5       150.8    
        146.1       135.7       125.1       116.9       110.9       106.5       103.4       101.3       99.96       99.50    
        100.0       101.7       104.7       109.5       116.1       124.4       133.9       143.9       153.8       163.4    
        172.7       182.0       191.6       201.6       211.4       219.9       225.6       226.5       221.2       209.8    
  11    81.17       77.19       72.94       68.56       64.29       60.40       57.22       55.08       54.28       55.17    
        58.08       63.48       71.94       84.12       100.4       119.8       139.7       156.7       167.8       171.4    
        166.9       156.3       144.1       133.1       124.3       117.5       112.3       108.5       105.9       104.3    
        104.0       104.9       107.5       112.0       118.7       127.5       137.4       147.2       156.3       164.4    
        171.7       178.9       186.3       194.3       202.8       210.9       217.2       219.7       216.4       207.0    
  12    76.68       72.43       68.16       64.03       60.21       56.91       54.35       52.79       52.49       53.72    
        56.84       62.36       70.98       83.67       101.4       123.7       146.7       166.1       178.9       183.6    
        180.2       170.6       158.4       146.2       135.7       127.0       120.2       115.0       111.3       108.8    
        107.6       107.9       109.9       114.0       120.6       129.7       139.8       149.1       156.6       162.6    
        167.5       172.0       176.9       182.8       189.9       198.0       205.6       210.6       210.4       203.5    
  13    73.04       68.62       64.40       60.50       57.05       54.19       52.09       50.93       50.93       52.31    
        55.41       60.67       68.79       80.82       98.27       121.9       146.4       166.9       180.9       187.2    
        185.7       178.0       167.0       155.1       144.0       134.4       126.7       120.6       116.0       112.8    
        111.0       110.6       111.9       115.3       121.5       130.9       140.9       148.9       154.4       157.8    
        159.9       161.5       163.7       167.3       173.2       181.3       190.8       199.3       203.1       199.6    
  14    70.19       65.70       61.55       57.85       54.70       52.19       50.43       49.57       49.75       51.19    
        54.15       59.00       66.29       76.87       92.04       114.1       138.8       159.7       175.0       183.2    
        184.3       179.2       170.2       159.5       148.9       139.3       131.3       124.7       119.7       116.2    
        113.9       113.1       113.9       116.6       121.8       130.7       140.0       146.1       149.2       150.1    
        149.5       148.2       147.6       148.9       153.3       161.5       173.1       185.8       194.9       195.6    
  15    68.09       63.58       59.52       56.01       53.10       50.86       49.37       48.72       49.05       50.51    
        53.34       57.84       64.44       73.84       86.99       104.8       127.0       147.8       164.2       174.5    
        178.0       175.7       169.0       160.1       150.7       141.8       134.0       127.5       122.5       118.9    
        116.6       115.6       116.2       118.4       122.8       129.5       136.4       140.7       142.0       140.7    
        137.5       133.6       130.2       129.0       131.6       139.3       152.7       170.1       186.0       191.9    
  16    66.66       62.18       58.23       54.88       52.18       50.16       48.87       48.40       48.84       50.35    
        53.09       57.35       63.49       72.03       83.64       98.90       117.6       136.6       152.8       164.1    
        169.4       169.2       164.8       157.8       149.8       141.9       134.9       128.9       124.3       120.9    
        118.8       118.0       118.4       120.4       123.8       128.4       132.6       134.8       134.2       131.0    
        125.7       119.2       113.2       109.5       109.9       116.2       130.3       152.4       176.4       188.8    
  17    65.86       61.44       57.60       54.40       51.87       50.03       48.91       48.58       49.12       50.66    
        53.37       57.49       63.31       71.26       81.78       95.23       111.2       128.0       143.0       154.1    
        160.3       161.5       158.7       153.4       146.9       140.3       134.2       129.0       125.0       122.1    
        120.4       119.9       120.4       122.1       124.7       127.7       129.9       130.1       127.7       122.7    
        115.4       106.7       98.25       92.05       89.95       94.06       107.2       132.4       165.9       186.3    
  18    65.64       61.31       57.58       54.51       52.13       50.43       49.44       49.22       49.84       51.41    
        54.09       58.09       63.69       71.20       80.96       93.12       107.3       122.0       135.4       145.6    
        151.6       153.4       151.7       147.8       142.6       137.2       132.2       127.9       124.7       122.5    
        121.3       121.2       122.0       123.5       125.6       127.5       128.4       127.3       123.5       116.8    
        107.7       97.00       86.40       77.91       73.42       74.88       85.27       110.2       153.4       182.4    
  19    65.96       61.74       58.12       55.18       52.92       51.34       50.45       50.30       50.96       52.53    
        55.15       59.03       64.40       71.55       80.72       91.96       104.8       117.9       129.6       138.4    
        143.6       145.4       144.4       141.4       137.4       133.2       129.2       125.9       123.5       122.0    
        121.5       121.8       122.9       124.6       126.4       127.9       128.1       126.2       121.6       113.9    
        103.4       90.91       78.31       67.75       61.23       60.43       67.62       87.79       135.7       170.7    
  20    66.78       62.70       59.21       56.38       54.23       52.73       51.91       51.79       52.45       53.97    
        56.49       60.18       65.28       72.03       80.65       91.15       103.0       114.7       124.7       131.9    
        136.2       137.8       137.2       135.0       131.9       128.6       125.6       123.2       121.6       120.8    
        120.9       121.8       123.3       125.2       127.1       128.5       128.6       126.7       121.9       113.8    
        102.4       88.58       74.08       61.46       53.19       50.95       56.63       74.35       108.0       136.7    
  21    68.09       64.16       60.81       58.10       56.04       54.61       53.83       53.72       54.33       55.76    
        58.10       61.52       66.21       72.42       80.35       90.02       100.9       111.4       119.6       125.2    
        128.8       130.6       130.6       129.1       126.7       124.1       121.8       120.1       119.2       119.1    
        119.7       121.1       123.1       125.3       127.5       129.2       129.6       128.0       123.6       115.8    
        104.3       89.70       73.45       58.48       48.27       44.61       48.58       62.24       85.68       108.5    
  22    69.86       66.12       62.92       60.33       58.36       56.99       56.23       56.10       56.64       57.92    
        60.03       63.08       67.22       72.64       79.52       87.92       97.46       106.6       112.7       117.4    
        121.5       124.5       125.4       124.5       122.5       120.2       118.3       117.0       116.6       117.0    
        118.2       120.0       122.3       124.9       127.4       129.4       130.3       129.3       125.6       118.6    
        107.8       93.30       75.89       58.24       45.60       40.25       42.17       52.54       70.71       90.07    
  23    72.08       68.56       65.54       63.09       61.21       59.89       59.15       58.99       59.45       60.57    
        62.41       65.03       68.50       72.89       78.25       84.54       91.57       98.68       102.6       108.2    
        115.2       120.9       123.3       122.5       120.1       117.4       115.4       114.4       114.3       115.0    
        116.5       118.6       121.2       124.0       126.8       129.1       130.3       129.8       126.8       120.7    
        110.8       97.06       79.88       60.25       44.99       37.87       37.39       45.69       62.11       79.87    
  24    74.74       71.48       68.66       66.37       64.60       63.36       62.64       62.47       62.86       63.84    
        65.43       67.63       70.44       73.74       77.33       80.85       83.81       85.73       89.88       99.85    
        112.9       123.1       126.7       124.7       120.4       116.4       113.8       112.5       112.4       113.2    
        114.9       117.2       119.9       122.8       125.6       128.0       129.3       129.1       126.4       120.7    
        111.4       98.06       81.17       62.82       47.72       38.17       34.19       41.41       58.81       75.70    
  25    77.82       74.86       72.30       70.19       68.56       67.41       66.75       66.60       66.96       67.86    
        69.29       71.22       73.55       76.05       78.28       79.55       79.11       77.76       83.79       98.92    
        120.3       135.9       139.1       132.6       124.0       117.4       113.5       111.6       111.3       112.0    
        113.6       115.8       118.5       121.3       124.0       126.3       127.5       127.1       124.4       118.8    
        109.7       96.97       81.39       65.15       51.31       41.06       32.85       39.68       59.65       74.55    
  26    81.30       78.70       76.43       74.55       73.09       72.07       71.50       71.41       71.81       72.73    
        74.16       76.05       78.28       80.60       82.58       83.60       83.37       83.72       91.36       112.7    
        145.3       164.4       162.9       146.8       130.7       120.4       114.7       111.9       111.1       111.5    
        112.8       114.8       117.3       119.8       122.3       124.2       125.0       124.3       121.4       115.8    
        107.0       95.21       81.25       66.91       54.11       43.91       38.13       43.28       58.32       72.40    
  27    85.16       82.97       81.03       79.42       78.17       77.31       76.87       76.90       77.43       78.49    
        80.09       82.21       84.80       87.69       90.67       93.54       96.59       101.2       113.9       150.1    
        189.3       202.9       192.7       164.8       138.9       125.2       117.5       113.5       111.8       111.7    
        112.6       114.3       116.3       118.5       120.6       122.0       122.5       121.4       118.3       112.8    
        104.6       93.99       81.75       69.25       58.01       49.43       45.65       49.61       60.30       72.01    
  28    89.35       87.62       86.07       84.76       83.74       83.07       82.81       83.00       83.72       85.02    
        86.95       89.56       92.88       96.93       101.8       107.7       115.6       127.9       150.6       188.9    
        218.2       223.9       206.3       176.1       148.7       131.5       121.6       116.1       113.4       112.6    
        113.0       114.2       115.8       117.6       119.2       120.2       120.2       118.9       115.9       110.7    
        103.4       94.21       83.82       73.31       63.97       57.22       54.67       57.68       65.36       74.60    
  29    93.84       92.61       91.47       90.48       89.72       89.25       89.17       89.55       90.50       92.09    
        94.44       97.67       101.9       107.3       114.3       123.4       135.8       153.4       178.5       208.2    
        227.0       225.7       206.6       179.4       154.5       136.9       125.7       119.1       115.5       114.0    
        113.8       114.5       115.7       117.0       118.2       118.9       118.7       117.3       114.5       110.0    
        103.9       96.41       88.03       79.62       72.23       67.06       65.25       67.45       72.98       80.02    
  30    98.55       97.86       97.14       96.47       95.94       95.66       95.73       96.29       97.44       99.32    
        102.1       105.9       110.9       117.6       126.3       137.5       152.2       170.8       192.7       212.9    
        222.6       217.4       200.0       177.3       156.2       139.9       128.7       121.6       117.5       115.5    
        114.8       115.1       115.9       117.0       117.9       118.3       118.1       116.9       114.6       111.1    
        106.5       100.9       94.69       88.44       82.94       79.09       77.72       79.17       82.94       87.93    
  31    103.4       103.3       103.0       102.6       102.2       102.0       102.2       102.8       104.1       106.2    
        109.2       113.4       119.0       126.3       135.8       147.8       162.3       178.9       195.6       208.1    
        211.7       204.9       190.0       171.8       154.5       140.4       130.2       123.3       119.1       116.8    
        115.9       115.9       116.5       117.3       118.1       118.5       118.5       117.7       116.2       114.0    
        111.1       107.8       104.0       100.0       96.36       93.62       92.46       93.08       95.18       98.07    
  32    108.4       108.7       108.8       108.6       108.3       108.1       108.2       108.8       110.0       112.0    
        115.0       119.3       125.0       132.4       141.7       152.9       165.8       179.0       190.5       197.3    
        197.4       190.4       178.2       164.0       150.3       138.8       130.1       124.0       120.0       117.8    
        116.8       116.8       117.3       118.1       118.9       119.6       119.9       119.9       119.4       118.7    
        118.0       117.3       116.3       114.8       112.8       111.0       109.8       109.4       109.6       110.2    
  33    113.3       114.1       114.4       114.3       113.9       113.5       113.3       113.6       114.5       116.2    
        118.9       122.7       128.0       134.7       143.1       152.7       163.0       172.5       179.6       182.6    
        180.8       174.5       165.2       154.5       144.3       135.4       128.5       123.4       120.1       118.2    
        117.4       117.5       118.1       119.1       120.2       121.4       122.5       123.4       124.3       125.4    
        127.1       129.5       131.7       132.8       132.5       131.3       129.7       127.9       126.1       124.0    
  34    118.3       119.4       119.8       119.5       118.8       117.9       117.2       116.8       117.0       118.1    
        120.0       123.1       127.3       132.9       139.6       147.2       154.7       160.8       164.4       164.9    
        162.5       157.6       151.1       143.9       136.8       130.6       125.5       121.8       119.3       117.9    
        117.5       117.9       118.8       120.3       122.0       124.0       126.1       128.4       130.9       134.1    
        138.5       144.5       150.6       154.2       155.2       154.2       151.9       148.4       144.1       138.9    
  35    123.1       124.4       124.7       124.0       122.6       120.9       119.3       118.0       117.3       117.3    
        118.1       119.9       122.7       126.6       131.4       136.6       141.5       144.8       145.8       145.0    
        143.0       140.0       136.5       132.5       128.4       124.7       121.5       119.1       117.6       117.0    
        117.1       117.9       119.4       121.4       124.0       127.1       130.6       134.7       139.3       145.0    
        152.3       162.5       172.3       177.7       179.6       178.7       175.3       170.0       162.9       154.5    
  36    127.8       129.2       129.1       127.6       125.3       122.4       119.6       117.0       114.9       113.5    
        112.9       113.1       114.1       116.0       118.7       121.7       124.3       125.4       124.6       123.5    
        122.8       122.3       121.7       120.7       119.5       118.0       116.7       115.7       115.2       115.2    
        116.0       117.4       119.5       122.3       126.0       130.5       135.8       142.1       149.4       158.1    
        168.7       181.5       193.1       200.6       203.8       202.9       198.7       191.4       181.5       169.8    
  37    132.5       133.7       133.0       130.4       126.6       122.3       117.9       113.8       110.1       107.1    
        104.8       103.1       102.2       102.0       102.4       103.3       103.9       103.5       101.8       101.6    
        102.9       105.1       107.4       109.2       110.4       111.0       111.3       111.5       111.9       112.8    
        114.1       116.1       119.0       122.7       127.7       133.8       141.4       150.2       160.4       172.1    
        185.4       199.8       212.7       221.7       226.0       225.4       220.4       211.4       199.0       184.2    
  38    137.2       138.1       136.4       132.3       126.7       120.5       114.4       108.6       103.3       98.63    
        94.54       91.04       88.16       85.90       84.27       83.12       82.11       80.45       79.47       81.23    
        84.84       89.45       94.21       98.42       101.7       104.0       105.6       106.8       108.1       109.5    
        111.5       114.1       117.7       122.4       128.7       136.7       146.6       158.3       171.4       185.8    
        201.2       216.6       230.3       240.2       245.2       244.9       239.3       228.9       214.3       196.7    
  39    142.2       142.6       139.4       133.3       125.7       117.5       109.5       102.0       95.14       88.90    
        83.23       78.12       73.59       69.69       66.44       63.81       61.68       60.18       61.02       64.28    
        69.52       75.97       82.66       88.69       93.53       97.09       99.67       101.7       103.5       105.6    
        108.1       111.3       115.5       121.1       128.7       138.5       151.0       165.6       181.5       198.2    
        215.0       231.1       245.1       255.4       260.7       260.4       254.4       242.9       226.5       206.8    
  40    147.5       147.2       142.2       133.8       123.6       113.3       103.6       94.64       86.45       78.92    
        72.00       65.67       59.99       55.05       50.96       47.81       45.75       45.19       46.87       50.94    
        57.14       64.82       72.89       80.22       86.10       90.45       93.62       96.13       98.43       100.9    
        103.8       107.5       112.4       118.8       127.4       139.0       154.0       171.5       189.9       208.3    
        226.0       242.3       256.2       266.3       271.6       271.3       264.9       252.6       235.1       214.1    
  41    153.4       152.3       145.0       133.6       120.9       108.6       97.36       87.24       78.04       69.59    
        61.80       54.69       48.37       42.96       38.63       35.54       33.88       33.95       36.12       40.60    
        47.33       55.83       64.84       72.96       79.35       83.99       87.37       90.11       92.71       95.55    
        98.90       103.1       108.4       115.4       124.9       137.8       155.2       175.3       195.5       214.8    
        232.8       249.0       262.6       272.4       277.5       277.0       270.5       257.9       239.9       218.2    
  42    159.8       157.9       147.7       132.8       117.5       103.6       91.30       80.42       70.58       61.54    
        53.24       45.73       39.13       33.62       29.37       26.50       25.17       25.57       27.97       32.64    
        39.64       48.68       58.26       66.68       73.02       77.47       80.75       83.56       86.39       89.57    
        93.36       98.01       103.9       111.4       121.4       135.0       154.2       176.1       196.8       216.4    
        234.4       250.3       263.5       273.1       278.0       277.5       271.1       258.7       240.9       219.3    
  43    166.4       163.8       150.1       131.4       113.8       98.76       85.97       74.71       64.54       55.20    
        46.64       38.95       32.28       26.82       22.72       20.06       18.93       19.46       21.90       26.61    
        33.77       43.01       52.76       60.91       66.65       70.54       73.55       76.39       79.49       83.09    
        87.37       92.56       98.99       107.1       117.8       132.0       150.6       171.8       192.8       212.5    
        230.5       246.2       259.1       268.5       273.4       273.1       267.1       255.3       238.2       217.4    
  44    171.9       169.3       151.7       129.1       110.1       94.75       81.85       70.50       60.21       50.75    
        42.08       34.31       27.63       22.22       18.21       15.68       14.63       15.17       17.56       22.19    
        29.23       38.22       47.72       55.00       59.64       62.84       65.66       68.70       72.21       76.33    
        81.18       86.95       93.95       102.6       113.6       127.7       145.2       164.9       185.1       204.4    
        222.0       237.5       250.1       259.3       264.3       264.4       259.1       248.3       232.5       213.0    
  45    173.6       171.9       151.6       126.3       107.4       92.19       79.35       68.01       57.72       48.24    
        39.54       31.73       24.99       19.53       15.49       12.94       11.91       12.45       14.81       19.36    
        25.81       33.81       42.44       48.11       51.54       54.33       57.32       60.83       64.93       69.67    
        75.12       81.46       88.96       98.00       109.1       122.6       138.8       156.8       175.5       193.7    
        210.6       225.5       237.7       246.7       251.8       252.3       247.9       238.4       224.1       206.5    
  46    168.7       165.8       148.3       125.8       106.8       91.47       78.58       67.27       57.05       47.64    
        38.99       31.15       24.31       18.65       14.38       11.65       10.55       11.20       13.81       18.67    
        24.16       29.61       36.15       39.75       42.61       45.66       49.28       53.49       58.27       63.63    
        69.65       76.47       84.33       93.53       104.4       117.3       132.1       148.4       165.4       182.1    
        197.8       211.7       223.3       231.9       237.0       238.0       234.5       226.4       214.0       198.3    
  47    160.1       156.9       143.1       124.5       106.9       91.97       79.23       68.08       58.04       48.84    
        40.35       32.59       25.66       19.73       15.04       11.87       10.57       11.54       15.19       21.33    
        25.52       26.73       27.88       31.37       34.54       38.35       42.72       47.59       52.94       58.80    
        65.24       72.39       80.43       89.60       100.1       112.2       125.7       140.3       155.5       170.5    
        184.7       197.4       208.0       216.0       220.9       222.3       219.7       213.0       202.5       189.1    
  48    150.7       147.8       137.1       122.2       106.8       92.94       80.77       70.03       60.40       51.60    
        43.48       36.01       29.20       23.16       18.04       14.22       12.62       14.11       20.78       28.90    
        31.08       30.07       26.40       26.78       30.10       34.21       38.85       43.97       49.58       55.68    
        62.32       69.59       77.62       86.57       96.58       107.7       119.9       133.0       146.4       159.6    
        172.1       183.3       192.8       200.0       204.6       206.1       204.3       198.9       190.3       179.1    
  49    141.7       139.0       130.8       119.0       106.1       93.83       82.68       72.69       63.69       55.49    
        47.97       41.05       34.73       29.05       24.09       19.87       18.63       22.62       31.70       37.98    
        37.74       36.39       33.65       31.08       31.67       34.37       38.31       43.12       48.58       54.61    
        61.20       68.35       76.15       84.68       94.03       104.2       115.1       126.5       138.1       149.5    
        160.3       169.9       178.1       184.4       188.5       190.0       188.8       184.7       177.9       168.8    
  50    133.3       130.8       124.4       115.2       104.8       94.37       84.58       75.60       67.42       59.96    
        53.13       46.89       41.21       36.07       31.52       28.15       28.23       33.30       40.84       44.47    
        43.83       42.51       40.04       37.33       36.49       37.84       40.85       45.02       50.05       55.74    
        62.00       68.79       76.13       84.05       92.55       101.6       111.2       121.0       130.9       140.5    
        149.5       157.6       164.4       169.7       173.2       174.6       173.8       170.8       165.6       158.6    



             ZONE ARRAY: HK_Par_Z1 
 READING ON UNIT  720 WITH FORMAT: (FREE)              

 LPF -- LAYER-PROPERTY FLOW PACKAGE, VERSION 7, 5/2/2005
         INPUT READ FROM UNIT  709
 # LPF: Layer Property Flow package file
 CELL-BY-CELL FLOWS WILL BE SAVED ON UNIT  740
 HEAD AT CELLS THAT CONVERT TO DRY=  -888.00    
     1 Named Parameters     

   LAYER FLAGS:
 LAYER       LAYTYP        LAYAVG         CHANI        LAYVKA        LAYWET
 ---------------------------------------------------------------------------
    1             0             0     1.000E+00             1             0

   INTERPRETATION OF LAYER FLAGS:
                        INTERBLOCK     HORIZONTAL    DATA IN
         LAYER TYPE   TRANSMISSIVITY   ANISOTROPY   ARRAY VKA   WETTABILITY
 LAYER      (LAYTYP)      (LAYAVG)       (CHANI)      (LAYVKA)      (LAYWET)
 ---------------------------------------------------------------------------
    1      CONFINED      HARMONIC     1.000E+00    ANISOTROPY  NON-WETTABLE

 WETTING CAPABILITY IS NOT ACTIVE IN ANY LAYER

 PARAMETERS DEFINED IN THE LPF PACKAGE

 PARAMETER NAME:HK_Par       TYPE:HK     CLUSTERS:   1
 Parameter value from package file is:    1.0000    
                LAYER:   1    MULTIPLIER ARRAY: HK_Par    ZONE ARRAY: HK_Par_Z1
                ZONE VALUES:    1

    HYD. COND. ALONG ROWS FOR LAYER   1 WILL BE DEFINED BY PARAMETERS
 (PRINT FLAG=  -1)

    HYD. COND. ALONG ROWS is defined by the following parameters:
 HK_Par    


              HYD. COND. ALONG ROWS FOR LAYER   1

  HORIZ. TO VERTICAL ANI. =   1.00000     FOR LAYER   1

 WEL -- WELL PACKAGE, VERSION 7, 5/2/2005 INPUT READ FROM UNIT  712
 No named parameters
 MAXIMUM OF      1 ACTIVE WELLS AT ONE TIME
 CELL-BY-CELL FLOWS WILL BE SAVED ON UNIT  740


     0 Well parameters

 RCH -- RECHARGE PACKAGE, VERSION 7, 5/2/2005 INPUT READ FROM UNIT  713
 No named parameters
 OPTION 3 -- RECHARGE TO HIGHEST ACTIVE NODE IN EACH VERTICAL COLUMN
 CELL-BY-CELL FLOWS WILL BE SAVED ON UNIT  740


     0 Recharge parameters

 PCG -- CONJUGATE-GRADIENT SOLUTION PACKAGE, VERSION 7, 5/2/2005
 MAXIMUM OF     25 CALLS OF SOLUTION ROUTINE
 MAXIMUM OF     50 INTERNAL ITERATIONS PER CALL TO SOLUTION ROUTINE
 MATRIX PRECONDITIONING TYPE :    1



                                    SOLUTION BY THE CONJUGATE-GRADIENT METHOD
                                   -------------------------------------------
                    MAXIMUM NUMBER OF CALLS TO PCG ROUTINE =       25
                        MAXIMUM ITERATIONS PER CALL TO PCG =       50
                               MATRIX PRECONDITIONING TYPE =        1
        RELAXATION FACTOR (ONLY USED WITH PRECOND. TYPE 1) =    0.10000E+01
 PARAMETER OF POLYNOMIAL PRECOND. = 2 (2) OR IS CALCULATED :        0
                         HEAD CHANGE CRITERION FOR CLOSURE =    0.10000E-03
                     RESIDUAL CHANGE CRITERION FOR CLOSURE =    0.10000E-02
            PCG HEAD AND RESIDUAL CHANGE PRINTOUT INTERVAL =      999
     PRINTING FROM SOLVER IS LIMITED(1) OR SUPPRESSED (>1) =        2
                            STEADY-STATE DAMPING PARAMETER =    0.10000E+01
                               TRANSIENT DAMPING PARAMETER =    0.10000E+01

 OBS2BAS7 -- HEAD OBSERVATIONS, VERSION 2.0, 2/28/2006
 INPUT READ FROM UNIT 703

 NUMBER OF HEADS....................................:   25
   NUMBER OF MULTILAYER HEADS.......................:    0
   MAXIMUM NUMBER OF LAYERS FOR MULTILAYER HEADS....:    0
 HEAD OBSERVATIONS WILL BE SAVED ON UNIT............:  714
 SIMULATED EQUIVALENT HEAD AT DRY CELLS WILL BE:   -777.000    

 OBSERVED HEAD DATA -- TIME OFFSETS ARE MULTIPLIED BY:   1.0000    

                    REFER.
       OBSERVATION  STRESS    TIME
  OBS#    NAME      PERIOD   OFFSET    OBSERVATION
     1 hed1             1    0.000       2.126    
 Observation within a steady-state time step has been moved to the end of the time step.
     2 hed2             1    0.000       11.41    
 Observation within a steady-state time step has been moved to the end of the time step.
     3 hed3             1    0.000       21.76    
 Observation within a steady-state time step has been moved to the end of the time step.
     4 hed4             1    0.000       23.35    
 Observation within a steady-state time step has been moved to the end of the time step.
     5 hed5             1    0.000       13.87    
 Observation within a steady-state time step has been moved to the end of the time step.
     6 hed6             1    0.000       9.056    
 Observation within a steady-state time step has been moved to the end of the time step.
     7 hed7             1    0.000       17.26    
 Observation within a steady-state time step has been moved to the end of the time step.
     8 hed8             1    0.000       23.83    
 Observation within a steady-state time step has been moved to the end of the time step.
     9 hed9             1    0.000       27.29    
 Observation within a steady-state time step has been moved to the end of the time step.
    10 hed10            1    0.000       27.65    
 Observation within a steady-state time step has been moved to the end of the time step.
    11 hed11            1    0.000       25.73    
 Observation within a steady-state time step has been moved to the end of the time step.
    12 hed12            1    0.000       24.59    
 Observation within a steady-state time step has been moved to the end of the time step.
    13 hed13            1    0.000       23.60    
 Observation within a steady-state time step has been moved to the end of the time step.
    14 hed14            1    0.000       26.65    
 Observation within a steady-state time step has been moved to the end of the time step.
    15 hed15            1    0.000       27.21    
 Observation within a steady-state time step has been moved to the end of the time step.
    16 hed16            1    0.000       14.05    
 Observation within a steady-state time step has been moved to the end of the time step.
    17 hed17            1    0.000       19.64    
 Observation within a steady-state time step has been moved to the end of the time step.
    18 hed18            1    0.000       16.49    
 Observation within a steady-state time step has been moved to the end of the time step.
    19 hed19            1    0.000       17.36    
 Observation within a steady-state time step has been moved to the end of the time step.
    20 hed20            1    0.000       13.64    
 Observation within a steady-state time step has been moved to the end of the time step.
    21 hed21            1    0.000       15.36    
 Observation within a steady-state time step has been moved to the end of the time step.
    22 hed22            1    0.000       10.43    
 Observation within a steady-state time step has been moved to the end of the time step.
    23 hed23            1    0.000       10.52    
 Observation within a steady-state time step has been moved to the end of the time step.
    24 hed24            1    0.000       8.343    
 Observation within a steady-state time step has been moved to the end of the time step.
    25 hed25            1    0.000       6.056    
 Observation within a steady-state time step has been moved to the end of the time step.

                                                     HEAD CHANGE
                                                      REFERENCE
        OBSERVATION                   ROW     COL    OBSERVATION
  OBS#     NAME       LAY  ROW  COL  OFFSET  OFFSET   (IF > 0)
     1  hed1            1   45    3   0.000   0.000        0
     2  hed2            1    4    8   0.000   0.000        0
     3  hed3            1   14   16   0.000   0.000        0
     4  hed4            1   49   16   0.000   0.000        0
     5  hed5            1   24   18   0.000   0.000        0
     6  hed6            1   27   18   0.000   0.000        0
     7  hed7            1   38   18   0.000   0.000        0
     8  hed8            1    9   19   0.000   0.000        0
     9  hed9            1   48   19   0.000   0.000        0
    10  hed10           1   49   20   0.000   0.000        0
    11  hed11           1    5   21   0.000   0.000        0
    12  hed12           1    8   21   0.000   0.000        0
    13  hed13           1   43   21   0.000   0.000        0
    14  hed14           1   47   23   0.000   0.000        0
    15  hed15           1   48   23   0.000   0.000        0
    16  hed16           1   27   24   0.000   0.000        0
    17  hed17           1   14   36   0.000   0.000        0
    18  hed18           1   42   37   0.000   0.000        0
    19  hed19           1   17   40   0.000   0.000        0
    20  hed20           1   35   42   0.000   0.000        0
    21  hed21           1   23   44   0.000   0.000        0
    22  hed22           1    4   45   0.000   0.000        0
    23  hed23           1   25   47   0.000   0.000        0
    24  hed24           1   25   48   0.000   0.000        0
    25  hed25           1   19   49   0.000   0.000        0
1
                            STRESS PERIOD NO.    1, LENGTH =   1.000000    
                            -----------------------------------------------

                              NUMBER OF TIME STEPS =     1

                               MULTIPLIER FOR DELT =     1.000

                            INITIAL TIME STEP SIZE =   1.000000    

 WELL NO.  LAYER   ROW   COL   STRESS RATE         
 --------------------------------------------------
      1      1     27     20      -4994.    

      1 WELL 



                           RECHARGE
 READING ON UNIT  713 WITH FORMAT: (FREE)              
 
 SOLVING FOR HEAD 

 OUTPUT CONTROL FOR STRESS PERIOD    1   TIME STEP    1
    PRINT BUDGET
    SAVE HEAD FOR ALL LAYERS
    SAVE BUDGET
 UBDSV2 SAVING "   CONSTANT HEAD" ON UNIT 740 AT TIME STEP  1, STRESS PERIOD   1
 UBDSV1 SAVING "FLOW RIGHT FACE " ON UNIT 740 AT TIME STEP  1, STRESS PERIOD   1
 UBDSV1 SAVING "FLOW FRONT FACE " ON UNIT 740 AT TIME STEP  1, STRESS PERIOD   1
 UBDSV4 SAVING "           WELLS" ON UNIT 740 AT TIME STEP  1, STRESS PERIOD   1
 UBDSV3 SAVING "        RECHARGE" ON UNIT 740 AT TIME STEP  1, STRESS PERIOD   1

 HEAD WILL BE SAVED ON UNIT  702 AT END OF TIME STEP    1, STRESS PERIOD    1
1
  VOLUMETRIC BUDGET FOR ENTIRE MODEL AT END OF TIME STEP    1, STRESS PERIOD   1
  ------------------------------------------------------------------------------

     CUMULATIVE VOLUMES      L**3       RATES FOR THIS TIME STEP      L**3/T
     ------------------                 ------------------------

           IN:                                      IN:
           ---                                      ---
             STORAGE =           0.0000               STORAGE =           0.0000
       CONSTANT HEAD =           0.0000         CONSTANT HEAD =           0.0000
               WELLS =           0.0000                 WELLS =           0.0000
            RECHARGE =       23855.9980              RECHARGE =       23855.9980

            TOTAL IN =       23855.9980              TOTAL IN =       23855.9980

          OUT:                                     OUT:
          ----                                     ----
             STORAGE =           0.0000               STORAGE =           0.0000
       CONSTANT HEAD =       18862.0801         CONSTANT HEAD =       18862.0801
               WELLS =        4993.9199                 WELLS =        4993.9199
            RECHARGE =           0.0000              RECHARGE =           0.0000

           TOTAL OUT =       23856.0000             TOTAL OUT =       23856.0000

            IN - OUT =      -1.9531E-03              IN - OUT =      -1.9531E-03

 PERCENT DISCREPANCY =           0.00     PERCENT DISCREPANCY =           0.00






         TIME SUMMARY AT END OF TIME STEP    1 IN STRESS PERIOD    1
                    SECONDS     MINUTES      HOURS       DAYS        YEARS
                    -----------------------------------------------------------
   TIME STEP LENGTH  86400.      1440.0      24.000      1.0000     2.73785E-03
 STRESS PERIOD TIME  86400.      1440.0      24.000      1.0000     2.73785E-03
         TOTAL TIME  86400.      1440.0      24.000      1.0000     2.73785E-03
1

 HEAD AND DRAWDOWN OBSERVATIONS
 OBSERVATION       OBSERVED           SIMULATED
   NAME              VALUE              VALUE             DIFFERENCE
 --------------------------------------------------------------------
 hed1            2.1255583763        2.1255624294      -4.05311584473E-06
 hed2            11.409017563        11.409016609       9.53674316406E-07
 hed3            21.756053925        21.756050110       3.81469726562E-06
 hed4            23.352603912        23.352577209       2.67028808594E-05
 hed5            13.867703438        13.867696762       6.67572021484E-06
 hed6            9.0558099747        9.0558032990       6.67572021484E-06
 hed7            17.255193710        17.255189896       3.81469726562E-06
 hed8            23.825366974        23.825363159       3.81469726562E-06
 hed9            27.294858932        27.294689178       1.69754028320E-04
 hed10           27.647617340        27.647472382       1.44958496094E-04
 hed11           25.732852936        25.732849121       3.81469726562E-06
 hed12           24.589410782        24.589406967       3.81469726562E-06
 hed13           23.596542358        23.596506119       3.62396240234E-05
 hed14           26.651674271        26.651592255       8.20159912109E-05
 hed15           27.208415985        27.208316803       9.91821289062E-05
 hed16           14.048094749        14.048087120       7.62939453125E-06
 hed17           19.638608932        19.638605118       3.81469726562E-06
 hed18           16.494268417        16.494255066       1.33514404297E-05
 hed19           17.359035492        17.359033585       1.90734863281E-06
 hed20           13.638106346        13.638101578       4.76837158203E-06
 hed21           15.357893944        15.357890129       3.81469726562E-06
 hed22           10.434610367        10.434609413       9.53674316406E-07
 hed23           10.520684242        10.520682335       1.90734863281E-06
 hed24           8.3430852890        8.3430843353       9.53674316406E-07
 hed25           6.0562953949        6.0562949181       4.76837158203E-07

 HEAD/DRAWDOWN SUM OF SQUARED DIFFERENCE:    6.88963E-08

 Run end date and time (yyyy/mm/dd hh:mm:ss): 2018/11/20 12:18:42
 Elapsed run time:  0.027 Seconds

